* C:\Users\conor\Documents\College\Masters\Thesis\GeecPE2526\Simulation\LMG2100R044\LMG2100R044_SIMPLIS_1V5\BuckModel_LMG2100R044.sxsch
.options PSP_NPT=101 POP_ITRMAX=20 POP_OUTPUT_CYCLES=5 SNAPSHOT_INTVL=0 SNAPSHOT_NPT=11
+ MIN_AVG_TOPOLOGY_DUR=1a AVG_TOPOLOGY_DUR_MEASUREMENT_WINDOW=128
.tran 1m 0
C1 15 0 50u
C2 5 4 100n IC=0
X$C3 3 0 MULTI_LEVEL_CAP_QTY$1
V$IPROBE1 9 12 0.0
.PRINT I(V$IPROBE1)
.GRAPH IPROBE1#P axisType="grid" axisName="currents" persistence=-1 curveLabel="IL"
+ analysis="tran|pop" xLog="auto" yLog="lin"  nowarn=true GUID="090e1284-2441-47e1-b5dc-3e09a40957c7"
+ disabled=false userid=IPROBE1. MeasureSpec="Mean|0|0|0|0!Peak\sTo\sPeak|0|0|0|0"
.post_process probe_measure IPROBE1. Mean|0|0|0|0!Peak\sTo\sPeak|0|0|0|0
V$IPROBE2 7 13 0.0
.PRINT I(V$IPROBE2)
.GRAPH IPROBE2#P axisType="grid" axisName="currents" persistence=-1 curveLabel="IC"
+ analysis="tran|pop" xLog="auto" yLog="lin"  nowarn=true GUID="48f4ce07-3c48-424f-960b-06e5335c5f9d"
+ disabled=false userid=IPROBE2. MeasureSpec="Mean|0|0|0|0!Peak\sTo\sPeak|0|0|0|0"
.post_process probe_measure IPROBE2. Mean|0|0|0|0!Peak\sTo\sPeak|0|0|0|0
V$IPROBE3 7 14 0.0
.PRINT I(V$IPROBE3)
.GRAPH IPROBE3#P axisType="grid" axisName="currents" persistence=-1 curveLabel="IR"
+ analysis="tran|pop" xLog="auto" yLog="lin"  nowarn=true GUID="a66514d3-1a8a-4812-a762-9c5665733539"
+ disabled=false userid=IPROBE3. MeasureSpec="Mean|0|0|0|0!Peak\sTo\sPeak|0|0|0|0"
.post_process probe_measure IPROBE3. Mean|0|0|0|0!Peak\sTo\sPeak|0|0|0|0
V$IPROBE4 3 6 0.0
.PRINT I(V$IPROBE4)
.GRAPH IPROBE4#P axisType="grid" persistence=-1 curveLabel="IIn" analysis="tran|pop"
+ xLog="auto" yLog="lin"  nowarn=true GUID="40135f81-cdc8-4b4e-9d80-22f40ff65337" disabled=false
+ 
X$L1 12 7 L1$TP_LOSSYL$2
.PRINT V(7)
.GRAPH :7 axisType="grid" persistence=-1 curveLabel="VOUT" analysis="tran|pop" order="A"
+ xLog="auto" yLog="auto"  nowarn=true GUID="1da89fce-1213-463e-8ce6-15b1bf11bb10"
+ disabled=false PROBEREF=Probe1 userid=Probe1. MeasureSpec="Mean|0|0|0|1!Peak\sTo\sPeak|0|0|0|1"
.post_process probe_measure Probe1. Mean|0|0|0|1!Peak\sTo\sPeak|0|0|0|1 
.GRAPH "power(Vec('3'),C3#P,0)" graphName="Powers" axisType="auto" persistence=-1
+ curveLabel="Power(C3)" analysis="tran|pop" xLog="auto" yLog="lin" nowarn=true disabled=false
+ GUID="4c79c2df-b50e-46b7-9bbf-9bd737998940" userid=Probe11. MeasureSpec= Mean|0|0|0|1
+ 
.post_process probe_measure Probe11. Mean|0|0|0|1
.PRINT I(X$C3#P) V(3)
.PRINT V(8)
.GRAPH :8 curveLabel= U1-HI nowarn=true ylog=auto xlog=auto analysis=tran|pop GUID="4f36510f-b90e-4b95-852c-ab17b3f88007"
+ disabled=false PROBEREF=Probe13  
.PRINT V(10)
.GRAPH :10 curveLabel= U1-LI nowarn=true ylog=auto xlog=auto analysis=tran|pop GUID="cd1d03dc-3b37-47ef-a512-0c4af64fa649"
+ disabled=false PROBEREF=Probe14  
.GRAPH "power(Vec('4'),U1#HB,0)+power(Vec('5'),U1#HS,0)+power(Vec('6'),U1#VIN,0)+power(Vec('8'),U1#HI,0)+power(Vec('9'),U1#SW,0)+power(Vec('10'),U1#LI,0)+power(Vec('11'),U1#VCC,0)"
+ axisType="auto" persistence=-1 curveLabel="Power(U1)" analysis="tran|pop" xLog="auto"
+ yLog="lin"  nowarn=true disabled=false GUID="634763e6-ca61-42ac-b485-4055ee94bcd8"
+ userid=Probe2. MeasureSpec= Mean|0|0|0|1 
.post_process probe_measure Probe2. Mean|0|0|0|1
.PRINT I(X$U1#HB) V(4) I(X$U1#HS) V(5) I(X$U1#VIN) V(6) I(X$U1#HI) V(8) I(X$U1#SW)
+ V(9) I(X$U1#LI) V(10) I(X$U1#VCC) V(11)
.GRAPH "power(Vec('12'),L1#P,0)+power(Vec('7'),L1#N,0)" axisType="auto" persistence=-1
+ curveLabel="4.7u" analysis="tran|pop" xLog="auto" yLog="lin"  nowarn=true disabled=false
+ GUID="5028251f-16bc-4de5-8c64-7e548a08b747" userid=Probe3. MeasureSpec= Mean|0|0|0|1
+ 
.post_process probe_measure Probe3. Mean|0|0|0|1
.PRINT I(X$L1#P) V(12) I(X$L1#N) V(7)
.GRAPH "power(Vec('3'),V1#P,0)" axisType="auto" persistence=-1 curveLabel="Power(V1)"
+ analysis="tran|pop" xLog="auto" yLog="lin"  nowarn=true disabled=false GUID="88c06a09-5756-4316-abac-50215fe535e6"
+ userid=Probe4. MeasureSpec= Mean|0|0|0|1 
.post_process probe_measure Probe4. Mean|0|0|0|1
.PRINT I(V1#P) V(3)
.GRAPH "power(Vec('11'),V2#P,0)" axisType="auto" persistence=-1 curveLabel="Power(V2)"
+ analysis="tran|pop" xLog="auto" yLog="lin"  nowarn=true disabled=false GUID="a6de96f4-62bb-4427-9741-1d99e813d1c7"
+ userid=Probe5. MeasureSpec= Mean|0|0|0|1 
.post_process probe_measure Probe5. Mean|0|0|0|1
.PRINT I(V2#P) V(11)
.GRAPH "power(Vec('15'),C1#P,0)" axisType="auto" persistence=-1 curveLabel="Power(C1)"
+ analysis="tran|pop" xLog="auto" yLog="lin"  nowarn=true disabled=false GUID="6b045374-48f5-4119-b7b8-23b985ab387e"
+ userid=Probe6. MeasureSpec= Mean|0|0|0|1 
.post_process probe_measure Probe6. Mean|0|0|0|1
.PRINT I(C1#P) V(15)
.GRAPH "power(Vec('14'),R1#P,0)" axisType="auto" persistence=-1 curveLabel="Power(R1)"
+ analysis="tran|pop" xLog="auto" yLog="lin"  nowarn=true disabled=false GUID="c441366b-cc3e-4f26-85d1-9910b5476a26"
+ userid=Probe7. MeasureSpec= Mean|0|0|0|1 
.post_process probe_measure Probe7. Mean|0|0|0|1
.PRINT I(R1#P) V(14)
.GRAPH "power(Vec('13'),R4#P,0)+power(Vec('15'),R4#N,0)" graphName="Powers" axisType="auto"
+ persistence=-1 curveLabel="Power(R4)" analysis="tran|pop" xLog="auto" yLog="lin"
+ nowarn=true disabled=false GUID="d70617e4-16db-4d84-822e-2893da7e2eca" userid=Probe8.
+ MeasureSpec= Mean|0|0|0|1 
.post_process probe_measure Probe8. Mean|0|0|0|1
.PRINT I(R4#P) V(13) I(R4#N) V(15)
.PRINT V(9)
.GRAPH :9 axisType="owngrid" persistence=-1 curveLabel="U1-SW" analysis="tran|pop"
+ xLog="auto" yLog="auto"  nowarn=true GUID="e7b9382a-f831-4106-87a4-176d7edaffb7"
+ disabled=false PROBEREF=Probe9  
R1 14 0 1
R4 13 15 3m
X$U1 4 5 6 8 9 10 0 11 0 LMG2100R044_SIMPLIS_V1_5
V1 3 0 48
V2 11 0 5
X$V3 8 0 PUL_SOURCE$3
X$V4 10 0 PUL_SOURCE$4
.subckt PUL_SOURCE$4  1 2
.NODE_MAP P 1
.NODE_MAP N 2
V1 1 2 PUL   V1=0   V2=5   FREQ=200000   T_RISE=5e-09   T_FALL=5e-09   PWIDTH=2.495e-06
+   DELAY=0   OFF_UNTIL_DELAY=NO   IDLE_IN_POP=NO
.ends PUL_SOURCE$4

.subckt PUL_SOURCE$3  1 2
.NODE_MAP P 1
.NODE_MAP N 2
V1 1 2 PUL   V1=0   V2=5   FREQ=200000   T_RISE=5e-09   T_FALL=5e-09   PWIDTH=2.465e-06
+   DELAY=2.515e-06   OFF_UNTIL_DELAY=NO   IDLE_IN_POP=NO
.ends PUL_SOURCE$3

.subckt LMG2100R044_SIMPLIS_V1_5  46 47 49 52 45 53 48 51 54
.node_map SW 45
.node_map HB 46
.node_map UVLO_FAULT_HS 50
.node_map VIN 49
.node_map HS 47
.node_map PGND 48
.node_map VCC 51
.node_map HI 52
.node_map LI 53
.node_map AGND 54
.node_map INH 55
.node_map UVLO_FAULT_LS 56
.node_map INL 57
L1 41 45 300p
X$Q1 49 40 41 PWR_NMOS_SPICE_V3$5
X$Q2 45 42 48 PWR_NMOS_SPICE_V3$6
X$S1 47 45 38 48 SIMPLIS_VC_SWITCH$7
X$S2 54 48 39 48 SIMPLIS_VC_SWITCH$8
X$U1 51 42 57 56 54 LS_DRIVER
X$U2 46 40 55 56 50 54 45 HS_DRIVER
X$U3 51 56 54 LS_UVLO
X$U4 46 51 50 45 HS_UVLO_CLAMP
X$U5 55 52 53 57 54 THRESHOLD_PDELAY
V1 38 48 5
V2 39 48 5
X$V_CLK 43 44 PUL_SOURCE$9
.subckt PUL_SOURCE$9  1 2
.NODE_MAP P 1
.NODE_MAP N 2
V1 1 2 PUL   V1=0   V2=5   FREQ=1000000   T_RISE=0   T_FALL=0   PWIDTH=5e-07   DELAY=0
+   OFF_UNTIL_DELAY=NO   IDLE_IN_POP=NO
.ends PUL_SOURCE$9

?@@--START ENCRYPTION: "THRESHOLD_PDELAY"
?@@25L1sgpbLeopzQEvUKxupu/7ceHDoH8+F5JXFxx1+Ji5iEu+YNAcG8BuUrRNn0ZTmhAZ?##
?@@XE5824JdUiSKmLrcyH9jMN9FCex5HPjhIdNGvhnXlWMXo22gg9ELzinyHQ3vChmbMOSQ?##
?@@pcHoEB0m7H/VTysd6FuQpQfXCdzm6RvfYekyuyN4kWFMfT1GGFEB/DcVw4cdBdyyXc9u?##
?@@sjH/jjVs9B5GDbnXBVxGgRYZyLQW25hjaE/stuvfYtVTzS/njqpATnjd3m9zPAh+9IIh?##
?@@b/EAbjZg79A2oPY79xnRF+iUNqTodPPvaVrGFtIwBNgE9vxdeBGZuWDpA57nnQcq+W53?##
?@@UOawuhTqcNhN3G5hCjzvcMtc8sSSm0DRUx5ESs6ZzMYDdnli+CMr0yRnWoMHl0eE5vLB?##
?@@IVIvgdGV90G3XmQMpat8r2LUfWtvazHzv82QJtmbIaCLWzsr4Tr9DBArXzs4qSeUgl9D?##
?@@noWBp6eslkNaM1m+qJcQ+hss/0NSmDrlkmABr10LylQUyj2Ac+PPtqtgTzecZD3VjzLN?##
?@@NxDTGfA9RkWyRl31ZQnLci8vWK4XgB5RMWnp9qLruIBXNGAO6/I5mu3meLEfbgX29Duq?##
?@@iMjdDy6SEPpmJLkf48B5jN7F6FldMU/AIVj1eVGKxyvbUDSnxKFVb9YjNognIZ+pL62i?##
?@@rQag1Gdgs/lx9UuqIlsptr2oUcwS18tCFjjvNZ1BwilO0+Y4RAdQz+cQpo6CWsyMB+iU?##
?@@Hjn1eCbZz8NOQJaKoOtTqwPOjgV0jA4cnMNso64DM+Vhqdaqu+nTX6kJc1A2JcAcNjMU?##
?@@12/BVOlDfbkDzUngY91tUqaGvzGrHSAYfMVyh8v1xfjHqTDxjSDx5iEumIZo3MNiODya?##
?@@YHDiQFeuk51yP4nsW0j6hyXX6ytHeP4EgPKNFMJjvEGKen1jbGjfKRvpo/0h8pO+oWky?##
?@@LboUpShaacJtA0fJDro+ixAwGXe8SQIYT3xKiJFTISWMg9lD09FGV2ycTr/tYdJGcdjy?##
?@@bujtFTORr8zj3tH2kLp/tPblkRhwJ14vXZRcTUoohKkSwGlMMsORwgtjKuO7l3EDEecj?##
?@@37RaFxsGHmmAx0anM6FrypQ4IoEJZH6APgXIwv/tITNlFk4r/0opL59CNGL8upFywdM9?##
?@@KI+06ykOZXn2v0xnD9zqc47ghYoFwBS0x5YTBuvLp/enuIHX4tHvG3eKmn9DFr7cRiY+?##
?@@Ecn9+/LhavIXVgPIHb6LIsxpgTUZ2UEQ2TIwvyfuIgfQD4dUJeuGXuQVZsXXZ9pirJRs?##
?@@7jV5RHcc3DfzglBgAkN027STuRDSBKjT9TMHUcv6KyfciRitXF3riVK6uLiXPq1H6Ut2?##
?@@m2tIns1YCb9CLCpM0yXjOC+YeEdlE4lcHafVKwcb2cLJZ/2GoVeaVI5Y8D6KhmOvwFpX?##
?@@sCDZ3uy1LKOyK99R9TlB/valCn8/Aa+bBcjhRZBR/n9JaLN0gQvYMZgbVGv1bn4bAFOl?##
?@@GQ6WvuZH3jvb7FVlqPNmz1W19J4lkjepVHzD1gzXVJwzm7mFGEQ58pWnW1/HI9oENVUA?##
?@@5vDggp4N8Ke64AR/64jAurqNu1r7FUCfu2EJD2+a/YDjDAUUrdUF7p96QLD+HIdxFsL+?##
?@@q/V5JGaBPCIooWbYfDVPv/7XKu8pSGZZvKpBsM2A0xRjKaHbXc2WkK+GDIUtLBK1bM7G?##
?@@wKoKZOAJsDx+8QVoyWVAmtSjrZgnuDDObyIw0MDL6CfvXUkCEjjsw29vOV6sbyxoDn1N?##
?@@lTjVjJ7ruM2LmrEJyYBVX191TGQ1V8W5XiFotICd05NJzgE2/QGnu0Uf1wBWTusoYnBS?##
?@@xt19dtkE64XWFqWlal2Cf087y9IoZCKf5RZi/1NBpLBvC6jKUV4adAyOt37x3VivjCE/?##
?@@b/EAbmZNj4uLsLCeyhFfTPAk4ekpgf71Z+iXB3mMFKMkRvZxRKXafHhbljbDKeyGnnDk?##
?@@CHtR4PB0/MZwJaaVdvkGWrkmNM6POuZnJkYHvxVFB3aHJXzjomBodasaPl68l6eygkyQ?##
?@@jfM9ydNbiXcWeG+0RO9F7rlcKuSsk2T0rQYhBa14hRR6tB6NM6V6KL5/GH4ikSGGN3tT?##
?@@6hMs48fkjc+8fBPGpqyu1FBK+BhN12gIwxIjUKORH+GGCUK50pfhFjdQtVRovbgWQ3vd?##
?@@ywjcMC0GoD/WgJpeyKNZaFuEqkdnHn+GhcscEkk27Kwj8qavcY8GX71k0eCHGVwOlnPp?##
?@@xMxXxS1bF1peYAkKl0CoB9lpr+WLJ1g6znlX0tG0PcmTg672PcQfP0flPY+BUTyblZKR?##
?@@9XH+r3maPdaqQWCDtHgt9rPL8+mqoCwIAFViecLi1z0kEbEkybccZZNqFX738VC5CqGL?##
?@@oqjOCJ41mXA4Q5/1vWpwNZDxYCbSRI0UgWYKYqylnPnvYvr4Afg/a6r4tlrgDIs+K8+y?##
?@@kyev2xd4b2Qa73933njHYsXKrCGrgP6At2WWUxm5qIBoVrDZFhEi314L1gRm2pjo0SJR?##
?@@uGVyoVipxWjht2k62cZRKbdGwoKC5NpYIZwI87kSS20PasHuXfXbo+BoJVYD+PvHJtD4?##
?@@tUs4l7o0lZ9+2C9rFjzeb4tV8h7DZX8CqG8PnH4qBi5A2gwsUOdLIxLA6H/MO1r3US9u?##
?@@vpjks32GNqMvRmng/2zPuYy2Tv2OKrPciI12ZNbi9QZoukqifVZpTScXCCrnRZdAPFAd?##
?@@v6H3C+xow9UHinJqFoV+dL+Nce40NJQ6VRDAhbzNkzbHWKF6WvUwt1fkgJT6NVUe4cfq?##
?@@yO6jJoqUuXniQxNKGPwC3Y9sII8i+z0WZTGvfSaoB5f6ZNydKc3KJ19T12CObeaYgTRQ?##
?@@CYRlOEzojmohIK9UKB9Aw3lDkHLZ0sQ4PRz65Jp9LjVUBqn7vsE0bXd5iCcwVfYEalvZ?##
?@@BmorL34cDo1SY/KL1LLuCES+DLTjnhcrNsrLlcqlYLL+TDv211bhrX4W4ODrh/ioWVtx?##
?@@A1DyJrSbymUoSzKeYbLs9UQiKCF5N+YO0b2nuqGg9e84SkgVzU6moB5OWqltCljRM8cn?##
?@@ADe5HRCiaDNWR7LLEN/Aa7Yvz4qLZYRWhUdaM/qptZzfCuP0A8Qx3tbiwqiNR+AWl5Wk?##
?@@fWkLQxgs38gk9plb0x78Q+U8qlTKnX4HIy81FaJU+yH7tUBffbUiliGR0y34vESpJnK4?##
?@@KqDbnMzApLYb/Rr6YDn1tqAA7ehtbzQUEWKnH4krbRMtQbqGj8Sf1uQxNGZmHUPgHSay?##
?@@ywjcMOCPgmOJnWGyVX3HfOlHcaXXANyqAXVkQe9ULBTAcuZ0ebk/qcxqaFqp+EU78caH?##
?@@hKaRrWgZQ43pOg8H/0GCFSwtXaR+G9I1osDFD7pqmWpGpOMEhjxJWM3MySO0M5YbzSVd?##
?@@yfe2f7h7Vd+RenAVFl9q4/qTJ+lEhNzHCh+gc3agme54srn9yi1zUECesRlMZN4eb343?##
?@@ZqRUUlE/z2Lc6UHbWAbr2cp4coHuqgk7n4pUAOaLndgQSF6VoLmNw/h9eDt9fKqigZ8J?##
?@@Q3e4PWkb9z8zvRsEnqtuMcMlIn21FtzjdssLBx5YL190qoeiPFJ4wxvGpKZQmJchjVEN?##
?@@QF1/NPC+tjhB39uGEwI7fLP2NKDAA5tOOgO2JMt6Jfg/4v0jiDzmoMN1KOZOhgnhRlOp?##
?@@wbIdvN9fZ1TM5YgncgLdxqs/VQL5iGG33A4+ZPnrlTC5IdGvwtmFySe6sDVDviT1T7zC?##
?@@4s6TIHvEbsZY7rhCIwZWQ4CDc2R/QVf5wFnN7Kr1ARaDEo034KFTBd5TyM8V9KKet832?##
?@@t1xeSE7mxV6wixrbqfcxkdLXsodIghf7A6LDdJRVIZ5/jgZYOKJjC0/Iz7QW/gbbC1RK?##
?@@oJanWPVAI91lbs42IUi5GSZC3mqra5I3yyId6SzZqz76/MGkl5MdmKslEyWwp+MVXgs9?##
?@@JXV74oNK4aoF4Kr2TTO8Zei15vesXkJANP3DZar1UTl2e1mADhTjac5rR8Z4bFMA6wR6?##
?@@VhojzKl2iasYxRkDVruPm+kjGGnfsHjW6zyOlKOy8zvcyCP8wS4HngYrE5GFQvWeEZzs?##
?@@x+aQztgpDzKySKyEGKmC+F4GCPLnhW9++YBb2TcHY0t2WZvwdd87nKL9WnkJn4LdpLRu?##
?@@NPaZEChRuwPu/h5xnWPM2r1IqqUGFAlPfLJ+nVUAm0EdGQtnkkbNztIyTiIpLgU93VwO?##
?@@RYje7jNk0LG8Rwq1OK4+lsi1yfDaheT+I3isoqa9/U7zeqFEYRPKrrjL2iXJB6xG4Jm2?##
?@@Xl+7j4t0c8yoPrwDOth9t9ypuC/+NQYwltfT/y69WI3a+pCAqca2q7yEbqJaR6243Y6r?##
?@@NxDTGW3SpiGQ5QpdCmXTP8isTA8RBG0O/mtSQYwuvPUckIqGueXdsbTYq+FfrqtD10Ou?##
?@@SKIV95hc7eXUvlCkB13f5bAHY9KeK4FGsb31scfY6LpiDaxjnFiJgN/6lAXUQD20/fy5?##
?@@--END ENCRYPTION: "THRESHOLD_PDELAY", 68 lines
?@@--START ENCRYPTION: "HS_UVLO_CLAMP"
?@@jfMkxsImIMdcbc+YajjZBgc15VCZ9BJ9GBbMkl/suWX/XHCfFRlmffruLazPwcqk0OsF?##
?@@8lesoqj+4Ged7hlh5PpaFHettKFTjsktWsAEvyMHXIm4MrCz2TCQ66TpAaVYtc12orXd?##
?@@h7+rtBY5NnE4PufPfEOR3hJV5/SHbPHQibpyiO4IAyYslP111AuAXevkyDY7r4UgrHIr?##
?@@GAWDZURVNB3QIAOeW2McHgAX4MkiuvvmtVNw8vpLCZ/+wu7Y3ErliCSDxk/KsyQ9I8to?##
?@@KZfHRLahR9lCXHiSJNoMthzMsFa50SAXFKw35KaSMgYbAG8nGN7VOcGgxFKSBVls42gK?##
?@@YoEI8a8Hnf0ep4OYVwpc4ejEF0/ykkGVjvd8b/d1W2rZf+hSzY7yoFHYmQljae5MrdiV?##
?@@J4ahk0BXPzLm9HOJULl34k3t02Hn6u9ZEmwcKOZxE9RoKIzMuhymBX0+7gS8+4I7Ykkk?##
?@@aLV6AyAgrcXk9wcsGGIhoGNqwzTzuHpaGI2ut6vloXephtwYDvuT66Gqao+DfbqPk658?##
?@@yfe2f+l3ywo2IXqDZdo6jLt3s7R1S0JJ4FPaecTtHRM/GxFtgR6y8MZZ3LmrvbLaxdXy?##
?@@fnIem0Drpc8dLk02Hx2cSGmkirrJNMMrs8j5mGc0b1CU3h5KvTV2vUkzACN7ReSt3IyF?##
?@@cxNMz4wJFerOdJmxQ8fhfMPTd8g62o1O7iMD3ErRE0GCmYNoE2kReFrq+KU3+FOH6njm?##
?@@HCfPx+LQez6yhzZ8r0P/G085Wzi2LddWb61ttAtFr0jSfhjSY0pTBUD1L+HZJmXikSQJ?##
?@@RYje7iTP0iES09pN7Kr60QyrMi0hk1q5Vd1GToS2ob2lmi/i0LvxBfPY9izM/FltqxAZ?##
?@@cgs5d9XtsdUfx8rdDLEV5D5kMMHfrdM7wklvTySXN3GlvA5fYGKdqtTsQaMz10vpCHPo?##
?@@5/nz2kXL196G1nXZd/m86djcxgZpgfhagxtMF9nb2jttb1Y1AnAm2pD1I2Z7SE5mariO?##
?@@pLn0uY9NTtc4zS3zfKuIhl/71gocWMiF0tORE4qo5SL7fy/tiHxIDQRHjQkDd3RcVdDO?##
?@@KZfHRKgaSKFMX8qy9LWen1bUOZMY7m4H+ZkBjM77WXtaAz+t6BVrN7nHFW4XU6swNUdY?##
?@@Jn2OOxBLK1jbkrP4VOFGWvyen2ntrUPzn3VH919YdM7BclX3G5NfsxV79LG/KXqjr/7A?##
?@@X2fO6Mca0wIerV8sP6dUU3FmmZK4zSdBRzgmB4ZOvg4BtrgxFxvtcD8vdX25rO4tYoEc?##
?@@XE6V3+IFWUcFq4tC3K0FqjkjkTNw0gzLPVYFW3pJBrfNSllRx4e1BCw79kc8Tv+gWlqC?##
?@@LboUpZASZsJEFYvCKT856qAJVIrBfDFjnw4hcxJEAOqi/zVZnv+n7vbONk3u7OVez/6r?##
?@@noWBp0LPu9RtXEd6TV9mi9dL9aFyCZarXw8Rt379Rd2OVUA+mZyuqwcboOjGQsqAeq7m?##
?@@l0n8PB6zJYSm259XIRCxRwcgDwOMf87CZTXuQQXBCVxnHWwIz0dAZZfe9RqEG1ShxuKQ?##
?@@+Is3uJWnv9kg7F6gpEZpnBczQvsW/44Y+q+Hyi0ecmo8N6wYvb8TVORPLp+zmtrBeRns?##
?@@idHwZx0WUTwkhIboaIzki1clvPncH42jM+5Mo5p1I3XPJTL5l/QEn5380nClK+Iy7Q/j?##
?@@OikMIu8SiloLXA1nxWjPdpl9xpEBvSNOUdEpQqTTpq46rubCQN2X9ZBXI0Vu+1YulY1v?##
?@@rxfGhWveMBZSRoLhdg434Sa1gLKpQojfl8mIH209M2cLFPlKZKet8ccnuw7LHWmG5BRI?##
?@@gINETGKVVw6aubVMNsmVrIw0wAuQjMCecqTJxh4yH0BKuoFoRRtpJjCFttF0tpqOHlLX?##
?@@Nf6taKaCYuwk7N8/Qj9XkbVLR33OhH5Y+NOFT9enKhZxaghTZkuwuZlamR/2g0X60Ore?##
?@@3qtHv1qZ8e6NYGcggIazf9u5q/3XbJVGegA6sUZS3h+lIHQ/6uyz3szxL1i9XJGobyvN?##
?@@D7jXSnFDjaPdYCpBEx8zavcl/2MlogI6u23vgOVOL0ooINy3Qml83JcAfHdRW+W0Tf8N?##
?@@hKaRrTVTZwtFlFEW9vTGgkyqhNtf1j10OhOFwXxQ+S5aAaga1ymVY9uU4A4rI06G15BZ?##
?@@SaoqUIIeufsSLZ6EuEn41clw04jdvo9DoAYBLzOMSzpFa0ehHT0jCUqk9QYGJkcQvEzC?##
?@@+pxeaZ5H/oSxHd/Ejn1dvUFMngck1RfMzy/n+5qPPHDEia9rlUDLzhWhAGo/xWzrcgtm?##
?@@szoS5xCz+PxT2urly0dUw16ngypVsjbUwMpRtvI0IBPL4jQzujoBQEWMLAzqfqSWLAkH?##
?@@UOawujteZoCi5tsQiFqKt3lzj3sQgqx0z4at6u1QkurZKPUcSqS0yOF+/6FI/KyVmoTZ?##
?@@ab2NW2nmSdRhtOfd6g26LWclBNzl9IG0G91U/gUQ0tdRH+dqMTq+lH1Tt/0f9fpzvnBJ?##
?@@6hMs485MCOo9xNfEtAfihcGjvd8CFNedtBjOqwFHAgZhsVnkZAfLNlpLJGn5glrtJKR8?##
?@@49aneEvCN+NSQEb6OdXlqb5tHPmtk9AD1v9srIpmdSBmjp1gn79HW0z3dGvwBmKLRRpn?##
?@@hKaRremP+YOTqs1O3AECt/ngYC76e2OEU+czs0gYDN50AEmumn8/0RIPgv51NrXYvUzJ?##
?@@idHwZ33fzf9yDIr8vcwPYsSmV2qOeTzUOJqUmcIkrmO8IkhrgkLJShx6IUlhKODAjDGa?##
?@@YoEI8UzoOjIAVuhqz7mXkCDnasijQY9zqkItzmE9ZyIkN7Pko+dMrxck3p46fv1XpWs5?##
?@@q/V5JBOVR8c8gHlJsWg7EGuPp3XnGOAWPugiM4Xh8Wyk6Pkyw+NsyW17XGjTCqhpn5tA?##
?@@HCfPx90wRDzepIfjl70djlBOjmGQLvDm4gD9bMSnZoE8z+chx+/+dqH/tRaFptfmbIBX?##
?@@9XH+ryyVxooFR8Qaisw8PrUTbWfvvkSTxICqzMbiVGS6nTu37MJb9jNsiQ/iOOWGDLIu?##
?@@asagtMnk/68GS38qxoK+raoq/5RyzVQTS2mW0f5gFFc+jJyZX142TdZ0VTuciTvLxFPV?##
?@@ywjcMHmmTjbvR1b6koDz3NGdIkx43WTgm7LUoyi4gEOkOZv3XHWdg5ZcavqwB5GLlMtU?##
?@@xMxXxeUjmQeCcpcs9/PkM+BwNgejsgAcUjBDEepIwZZK1cDbA3aKOW0cUZjAbLJ2hJYh?##
?@@ha6kBtXzgyIHXYvW8yO2xRutAzf+pB0uFbf16ZgzXngnCqD8kkIq9Ns3bTZq2SkDl5tk?##
?@@kh6cg060CoSgqQRTA1QeEb3Er+p3o7lFJgBamSLdGUqFnUfzlp0fX/tabYtYoIDsb7of?##
?@@kyev22zw9cY7C20fmJ2YscFvMrWTAMMr5j78mkMeq6aNzU40U+Mltk6nVftv1rOdiuZR?##
?@@JGxoiueQVA4+8P7teEUAh18+faIo27rSlHbddvCbU7LlrD/loVs8DWTe660YXlaF/OlP?##
?@@xdVqHQCoddcewRIQB4orwbYS4Ff5y2lrvjhg9E388piAY1MzIHWagIPZi4m075IJeU9d?##
?@@itkDwBQrXBthyWeY43BRIstU6D2htT4us2xf21WcYZP4Nst3RFdiTTbUf2nntVb69GrA?##
?@@b/EAblvNNAQhtqj7TBATWym8miGzzWqL2+IwYGcaD7WHP3rcNQ77pBh8bNwn267UQCqV?##
?@@YHDiQJOLBvhE/mD/K3jBjR3yWB8qyu0YmZArnekN6eMTs+mj78FBz8nZ1Zb7UnFapC7S?##
?@@beDavRI6r7pIKQLP2jXCGlJ6bsHsoD5wEfLqJQ6S/VxplszNt4dq/8xKy3raFcoce6xU?##
?@@xt19dlrfEHvD/0zKfTf92VS3dqGDlm2WA21gMn2BQBXW0DdgQEifx3+fcYc5JPvmSf0u?##
?@@7z6Mncuq87ejnYhLgnmMk+U8Y3x6AfCTU/3MN/jwb1bUwXOG5zZeMNlwTZd7SFSlnbM9?##
?@@yO6jJrX5lQXylsaGxrzl/744e1Du7yBJK/2PiRHrpe6UGkyck+kJenMQ8MQ+I6rwKQm3?##
?@@GQ6WvpDvPgSP+tLFk5YWbn0OkukFTDQqoUdEMb+//NxkiyWDD2s+ySCLcwcwpC/oPAOj?##
?@@NgfAweJhqaxN3degG1+eB4LdQ55StYRMn23FU/pVtV1bwAFOkpH3cmmfpjEae+KT6iIE?##
?@@+6VxwWyFfPVne1Bqa18q+cj/jKLxUnu519kMNCPKRQWmhzNWuaGziYKjoK5aCBnZy/Y2?##
?@@ZJIuom5UBHNF7cd1tvwAGIPG9hrS0xQSdbEMBoNXzTxDKxpgymg01ZHWSfVEvfOprLSu?##
?@@+ZRLEUxfuvzyI2QBlzt7hM2Rk4n5GHwV+6XIb4JXacADY4NK5PdLFcP0cQHZ7MsR+Rtr?##
?@@kh6cg7bEjIQJNLiIjGED52Av6UZQ0XhZDqmZoNQk3m7DUSSD12RYOCsp1qYD0/3VWXQd?##
?@@M+2Gt06zBR8rzxTj4Jxset6ufY657FF4WuvcYcrjhaoxrHtKQVVJMGeJkpUTSWS0B6Z+?##
?@@xMxXxUq1B7d/2zjxnEmBLb2h0gVNC680yY6Ra+7IRIFqVKw+/nofCarQ0WX/wR1ICSiO?##
?@@7Sxl7G2N4oCcIhrD1OWrGXtcYxKTT6c6VVOHuvp/KVgw9dRBsLEv+I4mr8SWSyhPFLLN?##
?@@rg+zLefb56+Br41DAmdG4OHKdOfwWIDg5JWFoAkF+g9qL5dqVLc8FZPQwteA0NhcJZ3s?##
?@@W0WChru09afT8MCy604m3BhIZQyNthbuFir2nIg/y8YYivNW+J31R2qYsGx+pjHpXiC/?##
?@@mFIPlZzwHI2NQ8KeiD63uudBP/ZhRfDO8Og/jf1gqXiAIlyuyFRFQFAmInW2sjMp/qMh?##
?@@Nf6taCNeI3E52Hj4l0pIV+ia5hnGQrQ2ZrjGNuoo/p44HMK4X+u2eNCo6MmcIG8sk5H4?##
?@@5vDggh6JxpAhJL54iQ/SI9mNnQryO+8olVey5ThsJStJey/R9uKM08R4EN5t+gi8HJJP?##
?@@VyM2JZTSQ7XVKfXcjfp0gU5clfDVQF2r2FqTZr6WbNAc95tef9VyuieVtYPlSp5JEtuA?##
?@@uGVyoTW1/Wljjp5skVXhDVleztk7WNXPRx46lI3oKjYTZ1W5+u6Php+nDdGAeA2goaci?##
?@@KZfHRF359PeUF6hw2N++ZhRAcd/s8fpRcV78MqMW7Mqf+OaWjt4z2vmXKEZyHB22LX1i?##
?@@7jV5RAezszmq5G043gD4uK8qz/4PWKzE07IF0KSZbwoA/hGh1XGh6XuBEzx3DCKfi3W3?##
?@@M+2Gt0jUfOyHYytty8LNOIL2SHafbtudJZHXMVRX/BYaQ4uDXbfjSyO/DId5T3iEyIWG?##
?@@6AEGMnoAEaKoev0seuQIm90obj7YoS3brrKB+ohSApNuYCijW/5+TX9OJHFQa3G3ybGC?##
?@@6QoZi08EJLzRtXEC0HNAHNxzlUBoi1f3NV/+/0/BHPXe+bd3MqfNZNd1zq0Yk85QDr91?##
?@@MuVzX+4RlPh55W6apPYOk61EMy2zywhUYXl0huKxVRoeaZgKcMA6BJM3RTMZNab08PbC?##
?@@rxfGhRRgGZvFKsQTYgvi2Vrt5iafBuqjTG6i5wVdcDhaz+6xqqQwVgtpzvEYR1v1lRCb?##
?@@DJ6eQd7bSN1iRMk6CKQx8ClozKnKvegBEVsoDMlnCrv6TYJ4xY5b1T6iH61M5Io0KQNG?##
?@@3aM0Zh1XGINy85hr7+ewvHoHSDUauaQBzdk2go+x6VovBHAPBWwVwxGNp2AuIrrDJsXE?##
?@@Qm6l5WTnFpjreTfXR087+6Dn4yQdwTwmv+ZlvqL8EMsWwRtwLPO1TZZnhUB9azmP7gDH?##
?@@Gx+8b5WJS+DrKdyN+/tbIlV/vzve9+u6F7ZCvZdS8P38iDG0Is4qHtXQ0F+W/hV66gnZ?##
?@@+Is3uHzSgaC0BijB63PgQIcamlhU/JTiR6mtqpR70+kpJuqUldW5dkmwAjhBADY6cGGp?##
?@@ZZtB+j5tdlNvcNU3rgKWMbTIRk7hmVIA/Htsq9b63lUfP0/LDAkTEFnQFdVTXhZ7pzAk?##
?@@oqjOCH7o+jxxzHw0BzeR5l0wAhv1tH1ZXDzTyux4lH8Au1jFZxG+idcqqTgyvM6g4JmP?##
?@@R5kEnx4LnNxVODTcomCCDXt24cfBVFHWJ4nTiM1RJQE2TzXAZbK1C80sYspPX/TNu11N?##
?@@QF1/NMoizvs10A1inKwY3Vrb0E/nsJY0YJq5QOJfsGA/y86slKwBgYu2Amy708HWuH7t?##
?@@AT/Mdfj37la+WAedQzIVwtQMv5rZjqo9hnY18E64P/4q9uxu8jmtneIK+rjGUyXNc/mb?##
?@@VhojzKD5iw2KkcmS4OGK1PCcr1idFTM2hLwnQE3s0O8fQrIaFQHv1GuyRAJf+YS8Vgp4?##
?@@+6VxwQOrLOo+8FO0CfVCrIz6fRBJ9JJsij80AASMSDJxhohvU2Q+AuCaBYFiUHIiZp5A?##
?@@YHDiQDnyT3f/Uf9TwbJ7Tn8duOJ8dcf7LqwIcFQyGJWJgO+2Wys2kp2ctv9aLHwfE9ZH?##
?@@ha6kBhS4t4pymeE9dBPnBWze0fFaiwbbPdq2m4NqwNV1i4Xekj9/p4KPGHcARX8iLnes?##
?@@vpjks2R6L1/c5pr09mnFVk4wJzs0r++gn8TP5KOnxFAYUjgrFp8PXzQ1mhQQz4+eQZnS?##
?@@S7tRAHqMyY1hAfDN1EVsH4/y4i56V+6c/eEq+rm943H4/iMNC61XKVT+qFPPzm+oh+jx?##
?@@YHDiQL1CI9A44ez1ITDxkDDVPvTCVlMn/XBS5hWASZFuD3zahwYor230F/BSSjB6SPnD?##
?@@Tc13scIuGSe4Wto5jTXKx5wX76m0NoiHN06fdSopwDyn/GPF0s2JgYF84AZHiYAlFlbm?##
?@@vpjks3O5D2BpHAN7ySuiz0vB6PXLVuIbzqdtjScB0tDWOyHvqPPNUeJW5u4/UXke3NS6?##
?@@q/V5JBmweHS9fMcq62Ww3pFi1OV1W3Uq7zYsnfxjMSgHtqYIvpa+tL0adKUNZIW+3/E+?##
?@@bNfHZIZXy7hiDV7X2hocjBbrg65YEu8GWfkQDpo6sH2XptIBdenXBGmbxViNT+YqrF++?##
?@@qeRTc8qA1ESZG5Cn8Um8qxttdFzdYK0t5oiiJmpeSpHf6miYO/GxQbkJ4pNtJ5J+8vRF?##
?@@KqDbnJAKYz+EGO0dfAJw687pBBZBUf/nxM/2nMLRqkZxpDQg+JMMWjp2bb2OkLkdnv0a?##
?@@Q3e4PWm/WDxdJUCN4ObNjTr1d6mP7MElAjYEhZdPDxgtkNyiYl8AHGzmdolDcn4zE9Pv?##
?@@0DM86fu0CCrVZ2FAzXPC93Q7MaRz+AZDFgKzxFPuJvlLKEiqIFHrbpHN/rCSlZnHGGbw?##
?@@ab2NW/U2ySMFV11XFr5EBc8hCoYKAGRY25PwYgcmSj79ZRCJQ6Y1gEnZDwgMZX1eYIo1?##
?@@+pxeacZqJ5Wuq3cOALAp/QVY6LXZW/TTqWdXeM+tbKzgmpodGs0WN5GRIXPjB/lpOZXI?##
?@@kyev299DAFBk+JWmYU52d3aLjwWDivmvTp2L1Whb3FmagUCLAfhfIJT1gMx1hAcM+Cmp?##
?@@yO6jJst2OxHrvkCVOwueRMoCbs7syUHSayHAy8p7LO2pFxo8o9VgclaXlccmG3CgTQQ0?##
?@@VREQdMVv9R0n5u4SvfNeVFqhtg3AT4elSDj5jQOdvEjpKuWncX0oxalJGmC8REy7JKrP?##
?@@4s6TILyWiENLOD2x4t9kz2BV4PryEjzHvZC1IT26uGn4iT9z/18EBQ61jDD14+PfXMUa?##
?@@001186i+4ccsgTxMokZhXIU3MECuym7T0S6C3mXjcCuFxdkTPLm+YkkLtx1rkfVapksd?##
?@@fGH46vcB5iJzHWAhTYIwqZk3J1e1PSC/w71CUOUV9AgwSK/uozrmeZiocy/tHSDDztlJ?##
?@@HTDiH8UWFx38zskgch/+6ibjKwNm+Je3tCsA0JXona6jnwIAk31ZDlG6oBQyWa4b0e/R?##
?@@TtWKCc+K9s5AFf6b5764zI+6Z0fBIOMXSxBuSVRY3pxV6zzyE911H65p70Gn4GdN+Gge?##
?@@l0n8PPE49a0bmtsW0cVUuOAn83Q5OlNJ8/LWSb4vcJ6O/HWOVcUINSjW91sK6ozIsh7E?##
?@@bNfHZBvZWgv/ZGIyKS57CxthFsz75TE//CqX80eWV/m62spyKNaePHEpnyO1AIGYMrO6?##
?@@/baXckYq02ekHzYXy5xhtod+9HEYJjZ601UPE9cLr5bF/OpHcKwZnRenDb2eIvZSJx6u?##
?@@asagtApHYjPBfBCm8zXMs119IDKYO30qpf82MSR57Iq1ajwaqEoVtDfNsmVEVcMfIYgJ?##
?@@94IkYMx+gLvjTI0iI9XO0MLLE7QpbiHQUf+SuSZWSMDYdkzbqm6oZjQj5Vds4/m960yD?##
?@@bNfHZEpoh+gjATbBz6p/Jdk+9ZPGohVxCjROA0okutTSM1ndi8Gj71fug9GqpaR5dma0?##
?@@HTDiH9vWhkgqpbEYargafCyrS2RmKycWlhSoga2Uop122srejIfqi4K3daHtk+dLSaUT?##
?@@5vDggppYIWVx2cpDIcA+pzFL/Ewoz6dRv8MvoLOhZ8PWXKTdvvQWl9MC9RmF71UcrArP?##
?@@X2fO6OoLfefgm0belxiLkfbpdBRXf4nO1+UUuzL6FmeLo9NCfhy4MhSBesXB+udaBN5G?##
?@@dBxfJ3Rp9cf5o0u6AtJBCV+6L4WknXnHSxe5zBI8r3BR0fn6gud8vesRdTYuRqFALGeD?##
?@@mVoi7fSOjux9WUoqF70IeECH5Ny7YBOjwinxwpHeMYDunoJOOzS+mnAKPzuESPPGfLYi?##
?@@mmM1Rf1V1dZNTS3xTR1ALsip33mgnJuQVpL9UDqF5xKdFunIGhXYmpolnH7wCLIa5Hh3?##
?@@l0n8PHMIzeyD8hMtH7dyFMmjxdzR0w0uhMD3ZyoZbgoi9E3auN9LUak/1RoRSnheYE+z?##
?@@OBjmcewo3VoS8TIHYzH6CkY3m3ytVrP/scatxJ74FlC+MWSf8vsdUioPeGC6GRtmk+SW?##
?@@RYje7i9W3m/IaMdASrAqx34r8YlhivrkiKMnkmJ7CqoFUrxfsu14FJo7yNf0jxcCZUjW?##
?@@SrM+qIZt9bfdmUmD3nS8lEK+N9bNCDoLObQYEF11QW00h/DPnAj7FWj2lNiJIfCSemmJ?##
?@@T96dYqZM3gm/i/8/DQeRiMLhgv2ySeYZgdEVkIUtmwIpXldZ9SnmCv13fclebZJiW9at?##
?@@JGxoihgmiIuy4Yrd/bLckYcngKnLbADAEe0h91S8cR4/IO1s4+pP0LU3AuiD/MHryxXw?##
?@@GQ6Wvia+VHh7wQk3GOlSg8UAMkeoFPyXAsxreIptw+5QeR0GMGhhic6Ocna/d6pP1tY7?##
?@@PkxYg523Vpt6EYpQqzqcVF+ea5E1Qdh0UyxnrfeWzkNoF9QRqHLLl+k+1j+xM2GOWHGn?##
?@@w8NEbWYZGBWObjlTUZKPOsXCyMu/ryd+lzybQwmERvkmQcVCowUNzGd0Pt6UildeI/Dh?##
?@@yO6jJk1BX89PInlT119NdVRBrWFLiUMugj9b5VbU0SQ4IiFW2GR26b+urUvYmJnTn5LT?##
?@@kRWJKqUJOFGZW2zlKT3NXDskRdTcUJSOkZm7kZXs+F/KmHkakAmUpJ77xLZQDHAIecps?##
?@@5vDggk7NmOV+OE2yb/mvjzvEulDIj/VTyhfnzipPhleBWnetMadY6gUKEeYzrgalRIhO?##
?@@t1xeSA3eeYdEZm75XqXnmQDGFluQR278NayYSlU924LA1rVXnO7D+2cpJMwHB0W5p9nA?##
?@@qNtAG0+DSO9mqFN46Ml6MrPGTsMGLUaS7ObLVe8inxHFbgbLgXokSSeIY1aD8YnmYM+j?##
?@@Ue/DEh/ieyOpOsy5+PnhDoQJggnihtwUo/NQ9TCanxUHHVK/lRrdDiWp4x7GN2GiW39J?##
?@@1meu/Ct+crGbISNU1d+Ki9jiLtLzIDng/qestqr+Dh2VIOhUJEJhkijZZhgb+hbav9DO?##
?@@D7jXSl+8m+yGgcrBpJ0DJiwrvLJ+jBWmg4hyC9SCWh+BET9qN7E3lN+r+vLxq9dLwnBL?##
?@@LLEBTRPWpaEL8BDRo4oVrucBbGngL6wrrOsOBmazYKyGhZ1Gv0O06igAOONlnVOug1GK?##
?@@ha6kBkZ8Zy7s8BQpUPPQ1X21mKitUL4JJ5DBPKw8S3kQO8vhB2A9e4Vc9+XJkYhZs7jH?##
?@@itkDwGzlua7GspNmiJKzy6kHDjMM7SUlWW98yk2FUz260mffeUiD4tFIkbvvGJWk2UUh?##
?@@OzIfeis53SJPMS0Y8Avw7oawERk+buYDQV1GKRjZlMKcyL/+brp+Af/3z2NbN/ZSwn3i?##
?@@UOawusVKEdjqoiL+b5AipE2M4Zo/0c7BXgwUtCsyThzPPBic0qNdyWK9+zel6bDzVVhq?##
?@@QWaSjTVvgzwQXEBXtNP3YD5FJTOSUtkqwU6hXEsraBvi8Y8ENi38YWFk8irTRUubgBHV?##
?@@Co14kCebghS4RHXWjYsHzwYDvykCUbTEH47IzAehe72GlRgLsKNmwQRqdFVctKOL9WPP?##
?@@l0n8PCJLG6pGkpQsdbYn/7TRDW3aWJ0b/AINjcZwAwUpsww6xwftNbatygIPDFw0RUC/?##
?@@+Is3uFA2/FAEQrk5O09fnMpT/TLc0Voq3bCD0+cELn0BFQeQpSn9aX17EWamY6vJ+k4d?##
?@@XVaoNx6tWenAUxLwau5zdZ8Z2IJefiBzThj/5yxZK6irnJGjitwjr9yiPzO4mcYmBNzW?##
?@@5vDggrxjMUKfNPgtKTOKpHe2liBu2ZxC1DCqvwLDQImjQqC9l4Y4DsTg6t/y6LTBIPC0?##
?@@12/BVCmCstjAq5oK+qPCJyrkfjW9UagOSN2IhLCogXtgx9CYUOk0v/MzlbfcN5+ux2xF?##
?@@+Is3uD3oJMusZd9qkqfzV6cuXEp0YQeHFPsjep4irqxHi3e0tXMFGrf9ucCqgDo7cOCL?##
?@@nX1uTziB+zfPexunZ3JMdsx0hK7Rq7touSYiB5v7epEIsMZzBzsOsyL0+8eWn4v07utp?##
?@@BmorL5tAoNoH8onlebrKl1ZHjvcMet0XEUXOPE8Vx6jBapQsAt9ceCQy7DoI5ts6yzSS?##
?@@A1DyJijpMfFQrmkSIj13/MNBu4Lp5cGhqmEVD0dlS9zN/oKjQeb+cJ+pZqvZJeq+N0Sm?##
?@@SKIX9/YnA9lvIU5kTU6zI0wt7p7cIDvVwiin0I991xXsa5sLGrCwLpt0Tg04yW6Ffokn?##
?@@5ejNKRGUHNkv24A9IWy5sARGDyDbIVhoa1IM6LSi6oXuuS0X5Zo/htFRENxpEwe0hjMB?##
?@@psoaalbwBFKxxu0DO8761n6vnbXIvsYsc+O/3ibOkEhNMUZVnNrrOF351Zoxd05+J2QD?##
?@@D7jXSrTGGdALozJpWhYRn4L9THfLvj8uJelB/rw1cUr6JhLgsNmvu1mPcTG3GDwLTrE8?##
?@@ADe5HamAXULmbq9qFxj+28669b8BYDxt69cgAeLW8X+8htQkZ9FIVVgXSCSjV8AfA8A+?##
?@@pcEHEkqxu4/+8nhDSgv3MNGOjm9kIpbRti46povtuerMYPxW0+z2z5CTpIleZwCKSBOg?##
?@@7jV5RITHNlwOoJi2jvZYQVTPJRJEw6FcW+o+DKhhL+bO0k2Pk3fSEPdkTEwYvZIkDdEn?##
?@@f3sx86iWDXWF1h6jxtbgtzbSzQcdoHSZQtPeh1jhdkU8F5D9D1CNml0EVbcby5YaalXx?##
?@@KI+06x2c1nAebD3ysljdKEjQayc0kK/gT24VtID6Cn/1ZU8i61eG9gRC6gCzDrLN/3ao?##
?@@OSH5yp67JPFouDcWJD4FC2UM4FNQbXIGT21gMbxWmCOrK3bFWfYPzP2U6mEd2/JxckVS?##
?@@wrswFJ1TtNCAjkM4/0oKXZswkBCI4kKFZJ6yy2AIbvibbLPPl9GVKsjAbWlMIzcmdmpO?##
?@@82DY/mEpzCVnpxfxo98JGekxNGpcfq8SVRLxGZfU0L5M0oUU6AkHP560dH9IC8ey11lU?##
?@@7CRSlLbV6LdL60in7PO08T2XA7S+0jiopFvLkQs3n0FWt+hUAdBTDdqYDXVaXxbuB4DZ?##
?@@VREQdLa7llO0eXJAC/4/NcbrducqNZ+cs4P857ybgbnjio9tFg29unPCWXVsJAEAoprg?##
?@@LsIn/p0qy3nS6fGuM4O5dXDvq668TPZ0IWUyxdeuVIpartJV+sic8BC4cqKr9Gp/bdW2?##
?@@kyev2/mDtIi+VIYP4kIVlHlFBXpVbdS3rGRDj8qvt/2JUQrYfwGLHIhH4ZvHHYEwbyOX?##
?@@/K2EGpK7lp6Gr0w/C/8xPXKaL0Pje++OZmBnQr6DemvoSJ1q3p3akpO9jJ0fRHp1/R4x?##
?@@AT/MdeadE7Atxit9Y9Hq61owsnqJf6meAJSGscfNMWE39wjGAkxAim2u42kdvEl+iEni?##
?@@8lfFpiF1YAEbdt1uyuOtzFzJSLXwvq8xzZnCq6ZmtKktNY85mfb4sOjuvFMdeGC0mdFp?##
?@@e1jlkoe7DEzGgUC7uz/Bzobzqcd7q9GbCIa1KR3kqo/7dKpO/tGfEvTXjdPaqzEykoa3?##
?@@MNNNrkOdjXT+jjnn5ruKGqpcIgdSiCBa6EwoLBg+w+pPFEaXbZj8lyZDNxvdH7WbaW9R?##
?@@MdxgBxw7QNHrJSH6G93gnWPvCsb5c6nlNuikb/tma46iSlI9ARmaxvz/tig/A59oVuqP?##
?@@Xl+7j79AQKh0gI78n+4yC1iG8c8t8Q2yO7s4w/+gj38aMWX3uIYNq/ZC5chDJoPPa/3n?##
?@@49aneGthEB+gmNFn9ATrmmtWlNFIBVsoC7r+tx5qDJR0/l8dFh/YVm8lqOqIwyjzdwSR?##
?@@FOM3BAuuOC9lysgx3yP7j5NWUGUEPOY0t8hc2NK+4o8C5Q7a4a43ciCWlIhH8ZjzkGX6?##
?@@ab2NWyFDi35CSTpaEFWnjYCxDQ6bHO9vUzda84fq4m8JV1FYO7mwEa16hGSmVbKgVM5x?##
?@@3qtHv22feKHY2UCZ6SnTQPhG9qgWUPPoTAQ9NFWfZdiPqHCiD6eHA3CHWSReOaRDsPTe?##
?@@w8NEbd6Z3fN+EbYxwyITByboNw7EnN6qenYCX6C5BllfpFv7k79GcmKfrjVs8qjcK/DU?##
?@@YHDiQB2Uh8WgzQVJD+pmG3aUq/dpPl5V8cNYLzARlwEi88yH6AeWF/Kg9GvC9/ny3NUW?##
?@@rQag1JX0fp9DXMrgXoFGFp3mqSB4rrKKZ9I2FjwKxQVIyo7xgqb4xvcf3b6+RDoPWVLy?##
?@@AkjfzRHhmURpTuPYRyyYt362YkIZXfxAo02ZiItOjvNpiREKu6jSroffsbrx3otSrdy2?##
?@@zyspkUWFODb38p7plMPc9uX1t72+cXwWRQn6ProGE07NDOVPQosKTZ+MMJY2GWqh9Bm9?##
?@@sCDZ3uGiS8RiwTWAPRByce0PpkfFwNY/HUlQcQBqWiL8XrQMDYxX1r0HMR5hGggQ/vDK?##
?@@XVaoN8GXk+ibFwMcyoO+p4c3FcZ++45qKHSc7t+z3ncpEDcHHSTqK5lTbx4bZj/98gWo?##
?@@FvRdtcSk0eHT2uxSZjJbafKTR1JVwF2xaxOWwFpT+lgsmlF6pKTlWUPYvTjSg+L/QuFs?##
?@@D7jXSgiGByIif6d9KHYajLdgvAuMgsoZhjUi4WeMttcAIBSoSQAzeQJ5dnBczmiHVdOJ?##
?@@mFIPlc7IhZTvBb4zJpTg5aiErFekiRMCguNpTuG1FYAP31xd1jQEs5pn7VjB83/vK+Re?##
?@@XVaoNzK3+0q0dxACZvRwr2nJDiAg3IBeaE9joNgLuTWKU3/4P+/GbEUVxnJdut1mQYNp?##
?@@8lfFpg7h3gUBXdnBp9soPvIhNwlPba5xRHz4jNxC/DB/2Ks+JkCBydwWf8yhXtlHuy/R?##
?@@E9ojrM0+zSLn6QvNFXB5uTtqdz19RNufy+2oeWdCdhfiO+YfiDNB1M4PPumv4enjjeBm?##
?@@zBHviH/jLNdQXTrWeBZzFJvLN5MNjLgCrYMzI1azwZztnqq9skKkd+N7YHdui/BjOrUL?##
?@@HTDiH1PuP/qy0lP23dxqrJzT0r6+R8JPhTLu8KUUh3xnrmj3tITs1u7HyjfjcpzgO/ij?##
?@@vpjks/mE8G2OG7zWFJKsYdZWK06Q+hDCaftHz5M6jLzUCUH0tLXvYnz2A48eMHztGQYP?##
?@@i+IWGJJIhF/JAgKb1mK56/pa+DLPOaGw8L7OLylllxIHD2pQEE4sNUo61McMkml2XXmo?##
?@@HCfPx7uC4VHmY1cLRZu4wyJ+tvIEi6qOBbuwwszPEmQyI1a9tjTaFNUZyifiHrDWgkL1?##
?@@+ZRLERox1ZWIy0bOUL37WsiXG5P1qGeY/SDnnBgfGOvhWaq7lBMhXqNU6UMfITSS90aC?##
?@@Xl+7j+zEIe/7Ouqwls3rBAhAdSI1mz3027UfhHaufBHGLYD1JUwRqYW+EQ56BeItPxb0?##
?@@T96dYm7xyKaZfBcJlif3dN+pm/XH2XfAq/gh6gKQxYLgxUGrYvmlZMIPt0JtDMQwTCG8?##
?@@UOawugVUS5YcxobwsTpPegvkt6zh1gBRv8xHzmYV4sGYU03lRNC/1DAjPKB6C/KZaA46?##
?@@CYRlOLMz4y+PdOLFY8nFC4mRWKAg8FAWFikG2atZUP70McBmszwZqvWpNA3Jd7LEH0XQ?##
?@@3qtHv0AklqAoie2oCATrZWMAFNg3dq5nY97nyxg9h6pPswXA20cPRTaRZsm1hzX6ciNu?##
?@@I2RVMW4WKt1uQoal/tyXBSU33i2HM2HSs6igznCF65ITox23J+q8e9EBR4fN3sZJI3gr?##
?@@GAWDZTbB82x5gxqfrK6AMd5VWg1eLCWJ4+t6yHKpCF1ofbrgmo4QUJqd1+UXqrA6Jtfy?##
?@@8U+yTlFYR+ZXjMuHssvkQfL9CYZZf0AscAGZMVGNN3DTni2iu+m3LrK9OlL1sS3FYhZP?##
?@@/r+qykXgyPCKajkNOTfdXH4lorZ/FX3FNfpHIsghWpqfLVJl09QBWSEvksuO+JCRmQcj?##
?@@6xs/O1wwKhhrFMb6gRl8bc2cYMdE/q6AxJPkzxCb6rwHGLVBUrjWEqOelu9xg0PyhXHj?##
?@@sCDZ3k8DnVokHvnOlk6hJ6V+WPZfygoq3zff9vABGL1LkcK5sHyWsOvhEdZAY9kkTSLV?##
?@@QWaSjUftMvs3K8OB0sKlFZRm9Bgz2ceqOhUfjLN6Yuvm736hpS5PIQ98XkkdOcDbSePo?##
?@@cgs5d8jxAy2HWQTSsDXo9jqUZJ/LzEuXq5ZYOyenTqnkFe1dEAZbyAtQp5/KL+rICCwu?##
?@@e1jlkrqVFj/dlzuZX1CHhP7R5go1pKTHenAhTDg1DBL85BIwE0IDtbpAb2S+nLEC1yXM?##
?@@eD6sifmbxLiptaA3VHiRoMPRF4LLmKt7QY9ZtMZfZ8MejLiCdEeNzYiKYH30UX1Cl4Ot?##
?@@qeRTc499hlnVocpWBI+U/jkStadCWqPUmpGqDss2d7i6VEzzoESi9zq349AEKFQveNqm?##
?@@3qtHv8DmV8jHOWP73sAmmJdwISyXmCUsnEWyeeX27kiFTof3RMfnKZ5v30eV3Sp9nGf4?##
?@@ywjcMBXSlHO9+cV5E1orh/otOGJfDuQyRT+Fp8XujGVGJ235m7QqoA/mlNa/E6ZvK25y?##
?@@HCfPxyXJJmw46sQEWQsllgp8y8hkKezGkopgzNQXd77uByrO2dDJns9p/UfY26Mt/q8M?##
?@@AT/Mdd2UYVQ2lg3mZZzzsrCLUp3wNn3DCngzpoQfQv3q3ty+dR2JhFci6P9HrtTdP5u4?##
?@@mmM1RZ/w7J7XTM28Qju2tNDlOscsSXt7fqlLZd/OJ2s2tBtwHR/SJz7C04yuyDAzS/rc?##
?@@jwRjeTd31JXQsanwDtwdks32mMd4a7+UMbRCXTjnTtt/gX05CG+JoK8VLoCf6c9iW8zw?##
?@@RH/LlrtoikAesXwh9PXEm4cgDyatgJ1QguXbevzmxW9gzMCpI1QIleP9kZBEyzxPaCHm?##
?@@DaaxmZGFeWMI7KcnuctUjQsPACFAVMbbuMsydWqosgiwtTcJfKOIbck0qKs85Y0OR3Gh?##
?@@KqDbnEo2G6DSPgth5ACsoSB+uYodsYFUjeqN/u+tmxHm7mkmO5p3REYkyzThVtMNMZ37?##
?@@zyspkSLgFbx14cWPmVKo1EtcLt6gv9Sgrr8k2LWSOeYa+GawklJZB5yGVqcb08gpwYrw?##
?@@TMRkWYqmlR9uLd/5aR8TIXpJuUI/fJmKAufX+ls6Yi/3LwTEpnmQa7gMYvypmLa6UAjx?##
?@@sSnsNum2UUpvLWW3dkqjo73Wt0yDb3P5qPGD3x1Cl2nEvov0ty69MdGYvV+25RYGJ62g?##
?@@LsIn/mffMnJMiaflHuTKFTwtXhLUjcfo4lLRlS3yy2oCEMRRs06h4ixEO5ARIlKnF71B?##