* C:\Users\conor\Documents\College\Masters\Thesis\GeecPE2526\Simulation\LMG2100R044\LMG2100R044_SIMPLIS_1V5\BuckModel_LMG2100R044.sxsch
*#SIMETRIX
.options
+ PSP_NPT=101
+ POP_ITRMAX=20
+ POP_OUTPUT_CYCLES=5
+ SNAPSHOT_INTVL=0
+ SNAPSHOT_NPT=11
+ MIN_AVG_TOPOLOGY_DUR=1a
+ AVG_TOPOLOGY_DUR_MEASUREMENT_WINDOW=128
.tran 1m 0


C1 15 0 50u
C2 5 4 100n IC=0
X$C3 3 0 MULTI_LEVEL_CAP_QTY vars: LEVEL=2 C=50u RLK=1Meg ESR=3m ESL=500p ESL_SHUNT=31.4159 USEIC=0 IC=0 USE_QTY=0 QTY=1 C_TOL=0 RLK_TOL=0 ESR_TOL=0 ESL_TOL=0 ESL_SHUNT_TOL=0 C_DIST='None' RLK_DIST='None' ESR_DIST='None' ESL_DIST='None' ESL_SHUNT_DIST='None'
V$IPROBE1 9 12 0.0
.PRINT I(V$IPROBE1)
.GRAPH IPROBE1#P axisType="grid" axisName="currents" persistence=-1 curveLabel="IL" analysis="tran|pop" xLog="auto" yLog="lin"  nowarn=true GUID="090e1284-2441-47e1-b5dc-3e09a40957c7" disabled=false userid=IPROBE1. MeasureSpec="Mean|0|0|0|0!Peak\sTo\sPeak|0|0|0|0"
.post_process probe_measure IPROBE1. Mean|0|0|0|0!Peak\sTo\sPeak|0|0|0|0
V$IPROBE2 7 13 0.0
.PRINT I(V$IPROBE2)
.GRAPH IPROBE2#P axisType="grid" axisName="currents" persistence=-1 curveLabel="IC" analysis="tran|pop" xLog="auto" yLog="lin"  nowarn=true GUID="48f4ce07-3c48-424f-960b-06e5335c5f9d" disabled=false userid=IPROBE2. MeasureSpec="Mean|0|0|0|0!Peak\sTo\sPeak|0|0|0|0"
.post_process probe_measure IPROBE2. Mean|0|0|0|0!Peak\sTo\sPeak|0|0|0|0
V$IPROBE3 7 14 0.0
.PRINT I(V$IPROBE3)
.GRAPH IPROBE3#P axisType="grid" axisName="currents" persistence=-1 curveLabel="IR" analysis="tran|pop" xLog="auto" yLog="lin"  nowarn=true GUID="a66514d3-1a8a-4812-a762-9c5665733539" disabled=false userid=IPROBE3. MeasureSpec="Mean|0|0|0|0!Peak\sTo\sPeak|0|0|0|0"
.post_process probe_measure IPROBE3. Mean|0|0|0|0!Peak\sTo\sPeak|0|0|0|0
V$IPROBE4 3 6 0.0
.PRINT I(V$IPROBE4)
.GRAPH IPROBE4#P axisType="grid" persistence=-1 curveLabel="IIn" analysis="tran|pop" xLog="auto" yLog="lin"  nowarn=true GUID="40135f81-cdc8-4b4e-9d80-22f40ff65337" disabled=false 
X$L1 12 7 L1$TP_LOSSYL vars: IND=4.7u RSHUNT=1Meg RSERIES=1m IC=0
.SUBCKT L1$TP_LOSSYL 1 2
.NODE_MAP P 1
.NODE_MAP N 2
L1 1 3 {IND}
RSHUNT 1 3 {RSHUNT}
RSERIES 2 3 {RSERIES}
.ENDS L1$TP_LOSSYL
.PRINT V(7)
.GRAPH :7 axisType="grid" persistence=-1 curveLabel="VOUT" analysis="tran|pop" order="A" xLog="auto" yLog="auto"  nowarn=true GUID="1da89fce-1213-463e-8ce6-15b1bf11bb10" disabled=false PROBEREF=Probe1 userid=Probe1. MeasureSpec="Mean|0|0|0|1!Peak\sTo\sPeak|0|0|0|1"
.post_process probe_measure Probe1. Mean|0|0|0|1!Peak\sTo\sPeak|0|0|0|1 
.GRAPH "power(Vec('3'),C3#P,0)" graphName="Powers" axisType="auto" persistence=-1 curveLabel="Power(C3)" analysis="tran|pop" xLog="auto" yLog="lin" nowarn=true disabled=false GUID="4c79c2df-b50e-46b7-9bbf-9bd737998940" userid=Probe11. MeasureSpec= Mean|0|0|0|1 
.post_process probe_measure Probe11. Mean|0|0|0|1
.PRINT I(X$C3#P) V(3)
.PRINT V(8)
.GRAPH :8 curveLabel= U1-HI nowarn=true ylog=auto xlog=auto analysis=tran|pop GUID="4f36510f-b90e-4b95-852c-ab17b3f88007" disabled=false PROBEREF=Probe13  
.PRINT V(10)
.GRAPH :10 curveLabel= U1-LI nowarn=true ylog=auto xlog=auto analysis=tran|pop GUID="cd1d03dc-3b37-47ef-a512-0c4af64fa649" disabled=false PROBEREF=Probe14  
.GRAPH "power(Vec('4'),U1#HB,0)+power(Vec('5'),U1#HS,0)+power(Vec('6'),U1#VIN,0)+power(Vec('8'),U1#HI,0)+power(Vec('9'),U1#SW,0)+power(Vec('10'),U1#LI,0)+power(Vec('11'),U1#VCC,0)" axisType="auto" persistence=-1 curveLabel="Power(U1)" analysis="tran|pop" xLog="auto" yLog="lin"  nowarn=true disabled=false GUID="634763e6-ca61-42ac-b485-4055ee94bcd8" userid=Probe2. MeasureSpec= Mean|0|0|0|1 
.post_process probe_measure Probe2. Mean|0|0|0|1
.PRINT I(X$U1#HB) V(4) I(X$U1#HS) V(5) I(X$U1#VIN) V(6) I(X$U1#HI) V(8) I(X$U1#SW) V(9) I(X$U1#LI) V(10) I(X$U1#VCC) V(11)
.GRAPH "power(Vec('12'),L1#P,0)+power(Vec('7'),L1#N,0)" axisType="auto" persistence=-1 curveLabel="4.7u" analysis="tran|pop" xLog="auto" yLog="lin"  nowarn=true disabled=false GUID="5028251f-16bc-4de5-8c64-7e548a08b747" userid=Probe3. MeasureSpec= Mean|0|0|0|1 
.post_process probe_measure Probe3. Mean|0|0|0|1
.PRINT I(X$L1#P) V(12) I(X$L1#N) V(7)
.GRAPH "power(Vec('3'),V1#P,0)" axisType="auto" persistence=-1 curveLabel="Power(V1)" analysis="tran|pop" xLog="auto" yLog="lin"  nowarn=true disabled=false GUID="88c06a09-5756-4316-abac-50215fe535e6" userid=Probe4. MeasureSpec= Mean|0|0|0|1 
.post_process probe_measure Probe4. Mean|0|0|0|1
.PRINT I(V1#P) V(3)
.GRAPH "power(Vec('11'),V2#P,0)" axisType="auto" persistence=-1 curveLabel="Power(V2)" analysis="tran|pop" xLog="auto" yLog="lin"  nowarn=true disabled=false GUID="a6de96f4-62bb-4427-9741-1d99e813d1c7" userid=Probe5. MeasureSpec= Mean|0|0|0|1 
.post_process probe_measure Probe5. Mean|0|0|0|1
.PRINT I(V2#P) V(11)
.GRAPH "power(Vec('15'),C1#P,0)" axisType="auto" persistence=-1 curveLabel="Power(C1)" analysis="tran|pop" xLog="auto" yLog="lin"  nowarn=true disabled=false GUID="6b045374-48f5-4119-b7b8-23b985ab387e" userid=Probe6. MeasureSpec= Mean|0|0|0|1 
.post_process probe_measure Probe6. Mean|0|0|0|1
.PRINT I(C1#P) V(15)
.GRAPH "power(Vec('14'),R1#P,0)" axisType="auto" persistence=-1 curveLabel="Power(R1)" analysis="tran|pop" xLog="auto" yLog="lin"  nowarn=true disabled=false GUID="c441366b-cc3e-4f26-85d1-9910b5476a26" userid=Probe7. MeasureSpec= Mean|0|0|0|1 
.post_process probe_measure Probe7. Mean|0|0|0|1
.PRINT I(R1#P) V(14)
.GRAPH "power(Vec('13'),R4#P,0)+power(Vec('15'),R4#N,0)" graphName="Powers" axisType="auto" persistence=-1 curveLabel="Power(R4)" analysis="tran|pop" xLog="auto" yLog="lin" nowarn=true disabled=false GUID="d70617e4-16db-4d84-822e-2893da7e2eca" userid=Probe8. MeasureSpec= Mean|0|0|0|1 
.post_process probe_measure Probe8. Mean|0|0|0|1
.PRINT I(R4#P) V(13) I(R4#N) V(15)
.PRINT V(9)
.GRAPH :9 axisType="owngrid" persistence=-1 curveLabel="U1-SW" analysis="tran|pop" xLog="auto" yLog="auto"  nowarn=true GUID="e7b9382a-f831-4106-87a4-176d7edaffb7" disabled=false PROBEREF=Probe9  
R1 14 0 1
R4 13 15 3m
X$U1 4 5 6 8 9 10 0 11 0 LMG2100R044_SIMPLIS_V1_5
V1 3 0 48
V2 11 0 5
X$V3 8 0 PUL_SOURCE vars: _V1=0 _V2=5 _FREQ=200k _DELAY=2.515u _DRATIOx100=49.4 _T_RISE=5n _T_FALL=5n _DAMP_COEF=0 _PWIDTH=2.465u _OFF_UNTIL_DELAY=0 _IDLE_IN_POP=0 _USEPHASE=0 _PHASE=2.515u _SHOWPARAMS=0
X$V4 10 0 PUL_SOURCE vars: _V1=0 _V2=5 _FREQ=200k _DELAY=0 _DRATIOx100=50 _T_RISE=5n _T_FALL=5n _DAMP_COEF=0 _PWIDTH=2.495u _OFF_UNTIL_DELAY=0 _IDLE_IN_POP=0 _USEPHASE=0 _PHASE=0 _SHOWPARAMS=0
** From C:\Users\conor\Documents\College\Masters\Thesis\GeecPE2526\Simulation\LMG2100R044\LMG2100R044_SIMPLIS_1V5\LMG2100R044_SIMPLIS_V1_5.sxcmp
.subckt LMG2100R044_SIMPLIS_V1_5 46 47 49 52 45 53 48 51 54
*#hierarchy
.node_map SW 45
.node_map HB 46
.node_map UVLO_FAULT_HS 50
.node_map VIN 49
.node_map HS 47
.node_map PGND 48
.node_map VCC 51
.node_map HI 52
.node_map LI 53
.node_map AGND 54
.node_map INH 55
.node_map UVLO_FAULT_LS 56
.node_map INL 57
* LMG2100R044
*****************************************************************************
* (C) Copyright 2004 Texas Instruments Incorporated. All rights reserved.   
*****************************************************************************
** This model is designed as an aid for customers of Texas Instruments.
** TI and its licensors and suppliers make no warranties, either expressed
** or implied, with respect to this model, including the warranties of
** merchantability or fitness for a particular purpose.  The model is
** provided solely on an "as is" basis.  The entire risk as to its quality
** and performance is with the customer
*****************************************************************************
*
* This model is subject to change without notice. Texas Instruments
* Incorporated is not responsible for updating this model.
*
*****************************************************************************
*
* Released by: Texas Instruments Inc.
* Part: LMG211R044
* Date: 04/30/2024
* Model Type:  TRANSIENT
* Simulator: SIMPLIS
* Simulator Version: 9.0(x64)
* Datasheet: SNOSDF9B – JULY 2023 – REVISED MARCH 2024
*
* Model Version: 1.5
*
*****************************************************************************


********************************************************************************
***                                                                          ***
***            Auto-generated ASCII Library file for component :             ***
***                            HS_UVLO_CLAMP.sxcmp                           ***
***                           Created on : 5/1/2024                          ***
***                            At Time : 12:31 AM                            ***
***                           Using version : 9.00d                          ***
***                                                                          ***
********************************************************************************

*** POP Trigger Gate information:
*** This model has no embedded POP trigger gate.

.subckt HS_UVLO_CLAMP  12 13 14 15

.node_map HB 12
.node_map VCC 13
.node_map UVLO_FAULT_HS 14
.node_map HS 15

*
?@@--START ENCRYPTION: "SMX_AES HS UVLO CLAMP"
?@@tHMAodZZCl5boGc/uKtyeZbvMRLm1DvZ584GpEY08JhTj/EWRXXAt6EYAy0wzAds?##
?@@emGPeOhdGD7Ks0q3jeMYgk0KBBlZhJU+iIr7jxWeonuCQf4WqB41+WF/0+OwriFz?##
?@@QsxGRLr/+uogOJhuQ/mZOiZX6IoLyXA2yjKgBpCBGZkRTWj4bHIYYpAcmhx/Ucqb?##
?@@XQ+ifFchFrHju9tYeC53FZKgfxAKvLhxopvGbXaFubvaMiT0/338KTi6NtlUmKKv?##
?@@9NQ2r1vfM6wpTEgmYBH4iKlygJfQlnvCSL5zkSDiqPmIz47gTDP8jSoJ/8Y4Jrin?##
?@@pIaCyY0v5tMFUVXfH7Jd71/SlO/J8i9cxLS5d6q12eZl0JsXsyZXhSxNvAcXgpHt?##
?@@6SPj7q78U2/1NlgIgrEaQQqaMKglCjSZDN++6e123aABFnKjQs06hCM0uyK4taNa?##
?@@vPDOmhri8agNAXU84JtdaiGJR5o90dyvxpAOtuAsbaCKpIo4W/mvPxZPUsSVYLMo?##
?@@6zKo/c/s71GR27tj6t6lrhT4+Ii4QOJkbmjotvRW7kPnU+cy54ylQOrAsIZkeWAU?##
?@@KDroFuiu/AIEVa3IaoXg45Fjfq8Bvng3d7lgWcNU4gLZ368y0YluS3sTGLV+vAQY?##
?@@zmT/vrpiRJc1B8UMK5+taZzVMUYuZzDYuD5XTZBm+uOqiTgsBmJlE6fOK7ntle4O?##
?@@j+thwPfxp/Ios+hzFSPETt9AIjPYstAGZgilcCJgSLtAPgcbvBlgvUyVKOryEWAu?##
?@@QXevG2fe4s+nfzs/iGDcovooWlB5+OY7DsKinTP7ufHGMRbiBa8aBR27KMOerBlV?##
?@@pKlvVygHKCWPdjZbVWODFwE0XYCatv1uZdsqpTsu2kyUArSePsWuISYB8PquGcpC?##
?@@b0ZVuRw3F4gvLebSfU70Dpa6+tugA1fd4elST76rn0I71mD1Bql3C0nhJrgqo96K?##
?@@GVg74xtpRHMukCQX30FENxeG22TSFLW2+oRLaViQjPrguHtcnqX2KGcoU2Jl4Ajw?##
?@@FKtusJeo3hSMuVJeuCZiqSt6Qhcrm+lnF35rHvqXfLHkY1jyP8MdRPtcX++qEsWy?##
?@@gH74ggSw3AiuMdb758uHlj9dbLjcwmevTGhvNOQUX+x5g/7/kmnqz4ROL4wbcqZo?##
?@@8lrIpdbOjjh1tCgwxLFuiU2IWteUC/9SXMRg5dh3QAtD4MXsqTVdJfamBrjFPhTf?##
?@@m/UvHZWY6rN0RGeaKmmB2Zx+mf+mCWAprQAWqV771gXaI1Xy3mB+yx1m1FXiRNpi?##
?@@xAFrwdS0luoC6TpnWM2OvIqRZljykBHes4l23O+chBwcFJFMRh1CuapeOYzb2sNw?##
?@@xXPwgj/EUp0cmdHsqYOgqwnblSNci6yu4I0RoH6qv+2LZZxvkM3oimUuYvp5g3qn?##
?@@VtdFgi73mVwo3Q+T6UfSwCNM2TOdgglbsXdQdyJhdq0SqsY7uMMBuq6P4DKMZywX?##
?@@OXYdABzvwEWd7hARht1V1SwYkFE1jRo9Ej42dFLRZsGTGmFxb6f1Sdf+9Wvjloj2?##
?@@GAfe6Q0oRDYBa9Pg7abUxOA7nWe0YgDn9+rcfcbeCRPV9cknJCWr/Sdu5vJ7k0ha?##
?@@FhPnWo/eHEk2m3hDV4LbJRfiYgW0KKmMRXP+n/G66e3wGRXg528M/HMnsTWrmCnD?##
?@@3ZSN7OY8P9QjRHyTpBnssRj5KKbJQ2dcDjnAmWh6AXXHWZWQz425N9Pi70y7GHgw?##
?@@BWr2fz+u2ahfNd1lWys8Y+2cGkecSiCTSRy2K23vtMcmeJMMUqAO9BGTzdf6m6gY?##
?@@rdfeix5AU32beb9YOdUoBWKfbDaNn08v91j6qDH+r05z3Ph3mCcCO3YQttc85Wv2?##
?@@chFt5ysq+S5RYKqBIgsZOchrlp5MVCEn85mydd2bXk7NzQ/+7rqBQXpJyBMX07Nb?##
?@@ywL6fHJpG1K4JmRfGTuh+N0S0GIAjNrIKOXq+zGN2ZADhwuaZD6x3bOiTnP01rRv?##
?@@YRAcG7XGQ/lnTG4ke0Kf5AlWsS6H2Xa9dEQghG2lOT9re1Yn4CyyitTyDscxQLm8?##
?@@BWwnp5ggMoCJWBzGpwgjzM/W+QrNK0u7BG/yVWQZLfszWRHaDSkFnyvsgkCDZIid?##
?@@iex4fSPEaIx4F0KrAnL0VVRvHH8/ATr1uEMXj5iAgzvpmJ9KPEvS+i3YK1V7rgys?##
?@@XJdkcFPWg2TR2wlpF4HgAJUsByL02KeGjDzkVuYi+VPpkSJw0Q7pkgjWOhaxHJDj?##
?@@uAvA3ILEPKIyovj0DQji6TrW1sLOtZssJ2m6gXWa9xqHH2BbVoce26Z0J1R7sLS5?##
?@@Zu4Q/3Cb3+1Jhqv5j6J5+Em+94ypCzOE0mzA0v8Nnl+37/Xr7DfnqSU980BwIOQS?##
?@@rvo4EAi2/vLz5rp1IY9ni7R/sGolReSrrdjm9q4x7v2e4zNd221F1PvGC54J/Y3P?##
?@@x8MkoSmUC6IWrVUyCgFMhh2GV0aGplZJh1NrDZESSsKGFMoNYKW21NC35WO/tuYf?##
?@@87AU/2l9hD4tHPf6dgdKoflQzcBpQbg4EmE7ioO0AAKt964HVaDLTsghSBIGkllA?##
?@@G+7536cxz4YUmlzcgdrZZu+NSs7jteaYvRCxhkeiWNTv+iq8NQYx+5m2SRBhHCaP?##
?@@ABH188a9FE3IBvIh5D0F7bAMKMP+qZ30CCfue8Q+nf+RYO54tV34QuAnU0njPJck?##
?@@Bxo99xWacqf2LgDj4pQmLoJ1AU6lWle7tdlbTHpo957bZu0lcPOnHlg0JnDsZWp6?##
?@@OEPP/NyG2L6+5JSAtb8FU28Q54I5r91chj0LuWG9lJshYmPjJ6WI7zenpyYyUAHm?##
?@@7Ci2VMN/Pun4PVd0YOgUmGmw6H7aCRNqDmcx7KLx72oVWGJU5WXlX2raHVcTwZaq?##
?@@CWCKw06Pt4w4J7glXnSdHcKgVC7fvdi0B6T9v+uIiBMdrNDZeuM3/Qk+bzU1/BP5?##
?@@FRolJjwV1uKuykajyTpSGRRN0INxmrIJIcRq0/awEDgzDD24rhQ3ek4reVw9JJEG?##
?@@3lkoSOACQ34s8GyELXAX8oYv9L5+h4TR3a7dMYSu/dMRRHv785yyLHSQfSIM3p/Z?##
?@@fjvSTrtO5NUi5UzPapDNcD+xOhTafxEE6oPkjFmHeBoJHXA9uTx4n49ods/Wii8B?##
?@@v9puKVnDJ2jnTGLxM9UiCT4Ip++1COtvUyenb0KWBqgvFDQguppTCQ1GMehOjuFs?##
?@@vXjoQBp2hO2LHvOL7Yh0j45Nde0QfbD11wZuKJsM6x2cSPh1/2x7CP0gRHv5XCFA?##
?@@LhBvkATajyfaCRctZrHUVXgQGw5Knv6CeEBk1sFSnNbT8ZkJTGyYgKSoyc7VJN3T?##
?@@4DAg3+3DwEKV/a+AioKZt+KRKvtyScn6QGxl/zGmknPGryP99DWa6GDqFuOEp8+Q?##
?@@Vuk5aMlGHIGyUcnMXkHun/nkw0YRg/6Zg6VBv6R9BFQLBNU3kU/5nwM6L9pRAxCd?##
?@@SxwT1r1/8hKJO0bwCs51h8GjmD5C7Mt05dFNytYHztBfQoadMdVqLyHrne60SZ+J?##
?@@jSM0ZCKOJ8QVDPAIOYEBAyz1u9qXXQDJIu6e8BolftvfPJJGm1/2T/l8e7IVa8Dj?##
?@@eEj+0BilyUZhZCMmTQPGff9is32pi6JGIXbT2RmkjgkK6W3ZyH4tdDOv1q5oNRH6?##
?@@x/H+xYJTVykQEw6O2yJFiwKshlXDB/cQm6EQUfRiuGnyWI2B9ZZFQDzc4ywHVxpe?##
?@@JUDRPQyJZ1XNqwYVkhKpEDJy/Xzo0ezfigTYetvqjLFDhJVGzT6ws3lgunU0W0Yy?##
?@@OeDkHmsBDRVADy3UqFu15X/qLChoHpMJQ9ovZ1bfQQC0zFwbksRCvSRU6AVPq3fV?##
?@@RKd3YbMUbvcipb58wrmGbNn9Mm9S8r0iOuiLPkjJ6Cwdo/RMhfC+nAqRZcfyoKX7?##
?@@Wdg6wCDBTR/IHSAEqDKf+dVf70owIJ/kxfF5sr0lD9sKCEcoTqF3S/3bYcowQ5tR?##
?@@9m8maX9BDqYv+FoV2Dnbcff4xSyJVo/m1EnTHzklaN1hzes7RNjeEb/EpBZpcXLo?##
?@@Kk9eukknOBuxL/E9q5DHMOjtb2wysxdi2sgPCDatCKwkZo/ZlNKv2ZzJ7G39d/hR?##
?@@HSbv323af2jDPfQiiukhzNeuuXCZXGr0qFrYy2oBcHWF4WlW3mxhbijsVUiGGmCX?##
?@@lTW86kwpSWXelYRrR7mCwIUhDv9uiBH96vUrwyEj016Bt9EIEtmYcCrx2Zi/YZmG?##
?@@STcvGf7QzDvAWO53PGVzbyox8tydNGVwrTM2rxtqAEU4ql9KamyzNMYRjRj3M3eF?##
?@@ikrvu6IakvO5vaYeh48OZo6lI5pZsAol+J/HcXIO1u6gQhLjf2Y1O+vwOd+0cZix?##
?@@0ba/6B0gScUudLUkdSy4PYEnLoGEbv8OHGgSzBkC8S/+MS99Po/Gfu+gHRrDb3B9?##
?@@jX5cCKZoPJoEGd1YpX4oo5r9Vja9iEB/cwkMdWAxBdtDOLh4gmGzURG+pJDFw0AM?##
?@@yoeZLnSme9D54KMT4sQIaFF1WfO4Hu+LUOV+Cq3OIzHO7bxmSxaMu92WqXdCyF+n?##
?@@9y8uYki9yiKnllXI7upxWIe96bMrfDsOr6k0HkgWv3d8L0/vY8ru9JncrXtJ+sk1?##
?@@Em8EMJdDhjlsTwIjJSBgSZmwiC1qE0isqdOrb6af4eSzUw7LKMA2Sm00fpQu3XpF?##
?@@80arvblxJy5VvxDOgSUA0I9PzDxo1PG23ZaR/yEvXW5vO8KgvbOrvNK8iZ/t+ktv?##
?@@ZmKorhxfj2JAPYGBraozW73fu7V82HaNGEWaGwzmq7LmmgoeuJsJ9n6iFkft5aP0?##
?@@N6p3yYO6LU5RaiQcIUlmPGJ46D3g95CQpDMEguoS6u1a1tu1cjiCSm2Z37sf00dE?##
?@@UWUTyhFokQbaNJPTvLu8gZHIurBtYkp65uzxLDqKazgAwU1Uu81PeoyTsiytUFnv?##
?@@ohENU1HEs2MY0AxMSENNWPBVxu0/CE9qPuHdqScEwcVKrzTMFzkZ+JJzVSFOzlm3?##
?@@OaK1OVs0HjadIWgcPpn0EEsR0uYbxY8TxBTTE6SmFpKyqPA6ZGFhKvmx61hbjAlr?##
?@@cHPtjEPQR+/8aS7cWZei/usAmGzYTOEwqjRDyVoUrU+T0BbA09XWbGVWoBJq7Qef?##
?@@7K0EZ5nfzCpEmfVAFE4mESNAS3V+Q2FfybPCFjjH9na85tGitFk1rvLVPl+TvYBh?##
?@@a8b4k/uKpZCpLYZ9ADorf9Ll7KhOdjZjOzcwfeSC6y1dmrPnHpS1XY+ByzPOj0UL?##
?@@zvYOd+M7TH6D+a6zUHlfFFgmH+7s3TLd+mx+s9tfdp4JYWz9bw7mnJ+F5bgRIzc2?##
?@@2aBlMQTQy6Y/pC1hy4M1A6QePCfuWVeyZsi/YChYDY+3dkb4C+y3OHkTGRUgPj2T?##
?@@XtQqvJCTwp9aB2EkZuplEKJ99BhRtGVbsH8M7PCDu/FPsCVlZUs+h/4E0KH+UqLi?##
?@@RQBXPRVxjQ+kf27EuRbR/l6ql0p9x9MLDj+nNo5zMTgKGdovyYn10QLyMYreCaek?##
?@@mjaBFX+V9nOkeujeZUElH1jTwJH9NdmlLS+bOrRWBk1X9ksRiNXS3ndW00n63dne?##
?@@kqjKXJbf+NRWvYna/W0T+GhHP/4nM79w3XwRkvRFKDVY6NFD258kVySlHx3Wwi0M?##
?@@obHcRSs3JPzJjrXovoBROURKRcHVPFKTzQgUd3qAfArnOj1aVFW6kiWHRdFFGa+M?##
?@@dIsZMtCzEEjCUsHNBkIRIrbZcEJBzm/Q9mSVtPj1GEpcJVXCum4YX/4Pijzf9bre?##
?@@PcYNCr7uC5mfQFfgAtwjcRerD5PuZCWLkaZ3T4Oxn3uYhxAcVGIldFSKxqsUCoeP?##
?@@Pg7VCSXGV/bkzb3iuFRmNt4qRF4aIXvJuFO55phdzO3EDHtnrMYZVAQbF4wa5ClW?##
?@@a9nzyOSye+QJRql7cfpa26OxzzUgpk/0YFs2d4xCpd47AGciy/FXS8973jKRue7F?##
?@@LvxNUeq5pGrNr0hO606JQTFG6WSfts376L2ojpyHsYcH6f9+mfCwa6ka+gn4j+Qy?##
?@@k9FHgyPWuyTEv5cQEljQKHjNmjHyCaNSbWe5VHmXaQ3FMa4MwgbNPJp8c1VqdKG7?##
?@@gcMTGVpTRKZL9ztrUNKWzsCIuEf3qdtefaPkMy2eTW3Oqyr40Sou9y5JWML8r2VN?##
?@@qiZgS1dXkCn0DOLAh9Q39nltQK2FF4hwiSq890JSxOYN65oD7D+UEOCj8pIj47t1?##
?@@YSEE1mUllhDMQwrVhg1my70vTT7eKO9NoB8JzHMhvhM9uqJwG20ueezUAVwZOg/C?##
?@@LgksYJUFxjcpIe2qv5vSAOxNBWA5lQFbQ9UCbeDZZAH/6xyFmoQHtaK+iwkmRHxy?##
?@@BiHG6hkSrbeI5+zZH3SdYvQ0yOHsVgbbFD4ChqqdlJzqCCIUbJvOcCHQ1qqbRgft?##
?@@9WhsyUkaD1GN7a+Uhh0OuPyxUOk3gzTeriNEgD6JArTQ927cAxB4yuRdWrnk1yoH?##
?@@0gAFgw9encpvqXWlyYQK+fCdJ1uGAPqoGewNoclnbtuPHhIFOw49B+XWBh/J18f9?##
?@@9s9vy/vmrzyrEuTZaM5KhC/bhgsu8CmU6GYmx3ALAqzMhiOnSShyVY3OuJdhAEU1?##
?@@mNtpOpz25rzfT3ra5B0REWbOFDnAtFsnOi7Eto5Quus6dfNKSMIwGwDywz24mmGx?##
?@@KcaLjFaou0QAZUyRuAE7wtdHLJyImzC9FXs939eQiu2X+vOjOuctdT/2Hl7Xa7FW?##
?@@TZ1wWdKtbrmC5zvnduPHHPuMQRo/7plSVnzKmOFDKvtI0FjQShwT9yoipqLww88t?##
?@@AGuNL856yt4rWDhTF2icnWTNSzTTuDTYnykXc5dr92eLP7SMAO4fUhmvGT2IzjCu?##
?@@LFQJKt2yQI7TCYO53slRPkHUizis9aL2V0pU3833F5IkfQmtqabXtHQawlP3b6LX?##
?@@uOliUgcIKLj92bHh2jONLA+74he1zX96zg+L8VYprDTn1X3kCbVoMdbOK2D1Uc0J?##
?@@rTaPDGcHskMGoYYmr3hvOKKL0Jr5Z0cLXLWifznoZ5K7/5csD1LdVExmcmyD60Dc?##
?@@CTGN6xi2YHNNjTq2YD2NH2LZZuv5u6ReAxH1SQKvX0yeKQX+Jv3MfeydtCzHRSmt?##
?@@UVY7skhNhhYzhmIzPPsAA9pBeBuGwwf86nXIH4VkMWZmrpnajVF5ovJohj7/B6U5?##
?@@qfAgGpvEcJA8YIDa/yiJvvWetWubM0Bjmb512VpCdMdhYrXvuog6o7Ne4kP92YfQ?##
?@@UZuSj1iylET2E2fvzaQX4l6/O2o1uWui2AGhmj5Z2PlIXZVKQUXpFRG+j1DyMoGE?##
?@@Vt5b8k8qSsimp7WVEEvVKM18kcWW4uxuccm2iM3cBqTTjU21/gYphpt2BHbZZbeU?##
?@@4ALehesSvmRiQlInNtgwYOi8kHcJrigUJGoA6x1aoD1hKbQoslsRz2ygCle/d7pd?##
?@@BMqymIzzoKgkiBUhQW7eAfm01kdCbjud46vC+gNZblucpjKiskEUkWkMI3v7/0KG?##
?@@iRQ59IV+VIm1dIcC994BTQGF4/UvpIAvS6pCPvRL/P0TILxkTYA/ivWR9C7DQ5AI?##
?@@8pOAj8y2+ji+da5A10snVJt+MHNVlv5ooJS5GXjNnDpcTxjv0duBnSb3X4Xx2qOT?##
?@@N0pvY2vMIj86/3Y8KYlbsLESzGZPXbeTtY0Zh96S0AoWHdoK+nvnTZHPAhscDGeW?##
?@@40dxQ9wpVQTm1Jb21Xe5YosLCdjCOxhd+coTaUAdQnKtfu9QSJcr5bYunEGYyeol?##
?@@mpGHeHaxkZU/s3F+dO8f2YJBWQZ/Nm8usdQR/Nf9+mkWKG/Os44PQzuFhdQYQF9g?##
?@@arUET1m6JXQnHtv00/OpJdeaMT1r/+XScO0rmRMqIn1qW/Os2uo3LkZBTlEGbiJt?##
?@@Ai+PEUQyJFBDnj854FtU5NhDE5RCXsJCBYzDUaMI+C5D2fSqfe3bjNmZhaTp7IQZ?##
?@@Qwp7iJw2e74cjqUdZIxDXXbK2987l4hJwfE/ZIXyf7AvnH+IpOMHDWYUHr+5o+wC?##
?@@h3Xaidxv6p26DR9O7a+VagAxYYwgdUsPDbbmIDlMu7tUaM24EUup/bc0MtiNQM9C?##
?@@I8xNY6Uw/xRuX+X5B5R18xPVc8Ev366uw71G7MxprIl/ewhWUenHKlr2p7K5Og5S?##
?@@69Oc6aM79LS6HxTydl73KZwkBbsLplzBGoRGGYQJG9WxanSTOUOtIlcGaUhDeQpF?##
?@@b9szlPJj3YuIqwLihP60acI0lX3PSkKqp5JS7/1nAvDiIW+/4WCHfzhldHrkSKQT?##
?@@aFySEqrMVBh+p1ir16K/dwBLsMEPB8xkj3p+EPJCtD+o35VODUlQgn1XLsKr27k+?##
?@@r3AF4FPzqUZquX0Fgp7B5qSLjY8LAH8cGJzYIoAuGFYvLZ2NWohQndcHSwY2PkL6?##
?@@VXBG6PgjdPs5Kx91c6EirLyOs0nfWqbuFOFHg8wxepya/YxlL8nvXHG2N/FnN2NS?##
?@@HiwjKTyEbyh40Zdj/yHv4e0hkkjgBwnGO5Gg3xsyOa8020T3V8qT32BwKt5V12V4?##
?@@D3oHszMSagG6BeuvCdfDBecw6tH+8e+y7Yn3BIFHSRVupoZoqS2KBduunvTqevlI?##
?@@Px7FbdA3VR6QahRvcU9WBVvsGcldhiVaUzOeOxUdNoEvcP7XD2+wDAGSW5yl8PtH?##
?@@9klNNKOEqnLg3dcBQeZp1xreeVG9YxV9nEQ9+n8oE48a74QkSVOcGEdMVoTSUz6L?##
?@@NjR2MM0BHOlpi/TQFJ1kxEKAriXuToSdJ0NVpYh9uecusDIIl3HwuUonYY2mneXn?##
?@@lerIXxykORcT2af6WqI7fpB+bqdXudoWYF3nW0NM8BLxYJUtQDfEYEnGAzkZoOk6?##
?@@UQwnhUCIg+uAXCPgTrSOZcfnPQMGzFnas+kVs0363CH9EaMTRulVK7d2SSfMmrDJ?##
?@@ji8A6IW8m+3BLqpqpwvCRp38d97atr6+9/1f8E5bF8vtKpKjcvSYoqQanfMWesz6?##
?@@tA62fTRnN5A3gSHOMg9PKCLXGQqVy9mURtZMZJw6P1Al1kUjhz9vOieEPXuDqXlh?##
?@@4HcMYzWJ6hIbtr284qHUCQkhJ8PjwQJP/td/tjz73tki8jb8gGqFRJHzYdKlHtWT?##
?@@k6BwU2ePir8Oh74r9aw64Odlcu22y825WoTcuwRqAR4FMWN7lEJUeT0lvKX4WGfn?##
?@@WoWKFHL8pNhgVYdwwZk92jQYlYdt2m7gxEhEk18EQ1bK6kHH1wdCu8/tSLyNKFf5?##
?@@qSLRCVhpy+Uww/iIeB0QxhCxJzgS9LTtT9V4hp3oUditgzGQ4t5v4nmndUtGTBUX?##
?@@kUWJwr9c2uNHdeXpImpny5oVNRQ5hwbAVVzjlrjBX8udJPBlmUi+1Wfgq0OTa/h7?##
?@@Z3IQKzNczR+J1rK7Vfhk1mE+hnFJaOjl9CezuJ7Cnom3R00PXD6J4Q136roJ/qcY?##
?@@4F0j0ZTdD4yJ5d6QIZ3m+iiMsfiqHy7wwYe6W4IE1D4tx8eF18ZdonP+AOrm8DEA?##
?@@S6R9c10lI6XABHzmFRd2NTiMMQQjPgz1/kkPWONkaFwz5CeLX/WNbA1xwJhezt2l?##
?@@06OIvPZxJF2o70A9+/vjOSzBU4HGOgDAmGCo4OnZoJ3bMKpu2kMP0d1KDLhqxJv5?##
?@@mSNJeWwDDuX5aPGNTnLeUX29EYKym0aSzOI4IgGe8RcAWWQxT8665ttreafOl1JX?##
?@@OuuV7/ITactdBdJAAWOaR2s6H4uIv2NLBMZ+hL0Y5GeGpZaneB76k8iz+p5MGkxZ?##
?@@fu++jmw8Ax5NvbBtFK4js1LoqixaCBpnNNv8kf5qqyH8ghqfY0uVmOA7zQ7N/OIa?##
?@@5Fgu3cyDC+P+g/UWCcAVFRMMDwM9Hd6+0D3+A5Uz45VAk+p+/rr8mMynQrlLgbv+?##
?@@7RjAjr/4W6dHo/JA9a6yAiCkTRaQcTitli+RtNYAmpz155HFRCnYG/uJz8IFRe2j?##
?@@Eg1Rh7lda7RMXSRFM6nUsH9dSHhbXB3+yShRay6Jh50loubsKxRfrPF+IHlXlAW/?##
?@@tqbPqbEqgr4P4DYJb7DGMxD6xK9RT/5xErBW45+mmWkaWQVCsZQYSlOEy2H7g2Vb?##
?@@a8Acv6YLopYIY3ZrVLiWz5KsOKRVE292tO5i4LN6pVXtqwyjTRTAjfVZLeR2OCnR?##
?@@2WzGwR5pN30l+u2bPMhWZdqEaX7Na2IWJUGFeY25b/dCufhVznhjo26GtTdTFGAM?##
?@@lrOIOL0lK7BS94grtS1yTs+7gKVcfClIkluslRFjV6hY8FtVwWIMtViWCCxYkN2m?##
?@@9py8z5BKP3TR1FFG+H6BgUnTdx3Cwl0lvBbmdPG0ml0+sMdju46ikxH90YoRvkT9?##
?@@CQnW2o2vEC9RVs9YIn++S1mj/8AQKGWgI1K48ZqUYNP6VMDG0etpiAi0FdxZ7UHC?##
?@@eGkO5BZK4L42ONAGCgymVVQrVUH1q34Zw2I6jqQvhweG7ALA4/UyyxkBCvvoJxqS?##
?@@XRXiGqCEovKHc+Wqv8k4zEWyy1Bflzd/QhKuOQAreEKAAfZZWYMcYX+HghExW0Sz?##
?@@RqrclpI5k+qip8tQGPCvGs0MKZxuEEDzPT/c5QIO64LHeaQ/aG/GzkrR0jVFYiWN?##
?@@v5UY8v4sF1nLcc1douTcKJL/sIqzfu2brJekZ6KN5l9WU3Bnh54g/SS60OIr4nfw?##
?@@0sO5DlWrjZCOsHZ8QVyvj0kIc+oRgOVc3cAmuuunBu+PIt0wlOe/nQvCddcBtIiv?##
?@@5igryNs2yzWnt5jpCKvtQqXWpmwj5vH1ylBt4aDPh55225HBFiyXVP+yWrRIE6gt?##
?@@NdYSQRgac6GLWkIRDJ0G70QHy0qTw/PcUa7uAx/VclkH0ODMxk2bRqc3+qF1twJ+?##
?@@U38FYIYQNElmbK4IMBc4ufD4qHqD/fL/fdkggN+8Z9+PUEn14TyqXiRXCIfiDrts?##
?@@NHOrXUKjMPBK3OruUEzL6dPqY20M9OM5ncwlGM2NEyLAvZXLmwDs3Zj/rgH1EJqo?##
?@@ZUz+OSfYT1P+Alm8mZ/qckyyVwBq8DyKtqk3tSPVmuKfzzQ1ORnDiX2XrRgEYMTy?##
?@@ARx5C4p14MS5xDvL/YMDoQFd41kRCQZ9HAiY7PBTwb0v3dtdcqltPZgGiQLmzV0K?##
?@@fdPUkmcgFmos6F0/hS+QyZVMK/hTZ9/YN+BOpZ9PWAaF8mdnKzgmBivvqNIQ6sqQ?##
?@@1f0aq96pE5f11ypMmd9rTyUahBwKa3f8SNgh0gf3lIOVQvfqp++vrzORheh27r8x?##
?@@cc4zN6+k02d0rhFvfeIGiJxS5f5CfRIY4d7h20b6qGJQRFCRYGPyW0UMO5wKadic?##
?@@L5zZU2ybSKBMIx91axMIokvh0vdRSMvtDEGY9O6i2x1El5VUn8VCO3n6bvDSgeAn?##
?@@yVllBc3DBVmK1IlagFc4wcd+HZ7nu4pVgRsvgZdn+DgXt6NWwTEtoi499gg5hkWG?##
?@@9H7EEEcGXmuF7sY5DgZs/OLIAlzdBQX6Ecr+x0XLvhizSqGqWaeVRtWtKnY0JdeN?##
?@@O5S007N9I3Nkv+WTq8E3qFsJVBG3VdwChCi5Sxrl+jkD6FnMHd3joR9hGDrUHpxd?##
?@@EThZqtMXC0PddpioUW8u/h5oEHnvEZa9zOjYSJ8OdP4X5voFLoWR53P7XKk/qL/b?##
?@@2hzTHyUgh90U4/kMfukizr6pSSGcgy2z6K/2RtqDnnVA6Yv7Nlh5pmq0elLvUZOX?##
?@@yMIyTAlMWlCKIx84IHzNZ0UYBfPUz3FwqGGJmToZXj0w0dNVAfik9TLOJ6E5RWJn?##
?@@4GDvcN2XlagKgfdTc0CDA4JJ+Xuwss9Q3aOqYgXWHWyN6eAtwSNDd5OtUkM5POKF?##
?@@G+cjuwutsNrGnha11TngJ3MB4+nfIKKBmW7Xj2Ajh01j56C7/W/aL+5Jkm2uFVAJ?##
?@@egbvMw1RquKrWDJbhT54vK7oOut27KBEDSuhRhLAXDFTic46RtleBgAn7fd5jaJP?##
?@@QycctSJUl6bZMmZpitZm0sWTuv3YnjtRbmPh0a+zaNcuk1RI7JFH22nEy/5yNdRy?##
?@@QFjex9eHdqyNYghdC3sHd1KcHbrGENi33D5aw5UMlVWB/pz+J57f5wWX3fsiJEnk?##
?@@DDbX4bS82fJJkCJdvwB9rgrKCmNRGnXXPdRCLuwWQoQXwHCghuIMXjYnsa4l5vOg?##
?@@B0BUfUzL7Yoni9PlHAFpWOm7fITrVqFqlyhUZUWRy5ZdrlAK1drJ+kp+pNDSJ+wn?##
?@@EtMuz9PHpsnYYop5zx6/pbyOwJLUSxUscsYiC7A+RkbxGuKmsVcFHhhf+jkvEG8z?##
?@@Dfwz8pP0g7CMGA9gA4F6/+KWXL81ubzW6JFBlLUj/wAPtHuYdBnleAfj+Al/P5yl?##
?@@X7Q7AHEwITYiIIAhzTLQVQmt398X/USC6VThEKIBvH2qxdZS4xf1Mzppy+TGOwJF?##
?@@lDcn8qczAbKppoGS/99ZwoEzffO9EMMFY7hhN6b8J3tIMlHxA8zTomQZP2IgM952?##
?@@1JxB7wS2GvnRL3AeYxpii1i//iXJyEQhwhCcz7uqvLyIUA12wDgftdf9Vxced8wn?##
?@@mo+4zFGi6kkTV+nHtNM9aKo+6ms3HHrOX+TbL677vV5LdgWT0pTeKNcOMuNdh97Z?##
?@@koKpTBZY4kThrD+YS26BcOovHaBtALkGYke7sqJYNnDhexXlpW4H5zxard6i0hR9?##
?@@qyduPc4tH38DoSDt8vPDH+2xSZd68Qet2B3pSWCCOwfedEIAPRZm4oheIGwFxb0u?##
?@@B+lA+cXKjBs1iMrBfIInTab0XMo38u2c65eKbwIYFFlj6EzHmToJcmSPyypBgWZ4?##
?@@mC3I4EbAA/ty1cuRSJJrz5ABQMM/VyfXr9V2hWTTA4LDJWGxXoN3Bay3lvpT111Q?##
?@@v/OYwVMDUhPoCiKCb5QSz+2LBAhNwilldziQCiWXz8fdlf7hmFiS9+bPnytdnZ9D?##
?@@a0HKaZ/UNMbjY7UPu45mZGWnQFipC3tO8/dXx091/olGU1RWQY6u2tgB1fxoF6Qx?##
?@@593nqOYlJPn+tHAuYs5k0KNkzdPGHZ9kTW7ARD3midaVi27+PD/LP5J6FsXduWXL?##
?@@I6U9UzxTQ1nO6fIiwFCTTQnftI3MNX/KHEEJx1hL83TZZf3w1F7xNDnfmBDkLGLt?##
?@@bul3PcugkAXZpQyKySl8EaCkAi0keYamlH8tvnNi5no2503AOxpwN8VutoabH5kx?##
?@@a4kIcFBPuQFxGsWDRUTc+MEm4CCCMSVxJKHtw4Y0AZh3MRytuYTMZRyL7tYOTYZa?##
?@@l5k/1/zxCddpTj+cyHpC2ac3rzGsckfFu9JHYJ/9h3lUvk77P367iX/i7FKsWRVN?##
?@@QmrLZSNSGYJKxfxTlm4SBbmhOHfVWy7yz/qXPvAqGO6hfyCpoHU8P6LxlMo3PqBF?##
?@@2nBGVewvGF/YGcFySZ+gUtMPRyFi8B+gYLCXLV47560t9zuUJzPzr8MYkAaTpNxT?##
?@@0DxOXHyBDkEMCvTyAhZhmPhA5ClHp7TTuhMmHPnh0p+r418jLgdRJb+UlquE4fLs?##
?@@bQZrCnMfLDCcKpKs4nQsOVHuTMkiE1l5CS3J9/Ms8RcPzqDBOAgruiV/EolblejT?##
?@@3iZFawWBv0/rsk22aLGFc1SHiGWn2AAOS9A8OfjO1tb4YYBn23ECVxhKvIb06Unj?##
?@@fkozL64gG8rIlrh3a2xHuXD8XKhDwoP2jbVyGedzOcU++ef2mGkd1ytj9Q6D2tgC?##
?@@P/60MoZfZC0vEIg51si0FMUYLrbPc6sv659gl8SW/l+2FOTHqRUfqc5f5vdUkwtl?##
?@@JVwLfxuaBx7ovv7TBrwL31Rn0QZHhiwzCE2CCVXB/EFjxCz8rSZEpzW9SO7Gz6uz?##
?@@O4oKTL73Km1adJEtJwb/l8GftF8zf1WKbqVkwDoSYlSW7oyYfRr2hWKAdNg9qCpd?##
?@@zbJ1ZSELfQqZq+nEgrXxM5nDfw5yqiw/xJ43qcMQu6UM3DNnyP2l4CzI5gRmvFfA?##
?@@w9bVX+YwdwXVMZCgiVkoGlIG30aLB4Y3msYMSNfOmIWyZnh8wMXWXxR6lxSH6YTF?##
?@@OVQBGJvN7Mmt9KognePP1tVUI1cL+M/KO9WnLh/o4KVsDZu++AlCaBkHxWqyczVQ?##
?@@qqNBvwv1pR72CBQmVwjx3PiFrlfLED+OI799PyAdXrkOk6e4MA7cSH8JMM6tbdPX?##
?@@CCRjB+U/2dmTr5tsyzjVwqyK5Allcpm73gQhG0iPdZvzdJ1NbesspAd6ax9C24/L?##
?@@MbMwu1tPum033BnK3DOi1Guise1RwAfoztw4aCcrdzqIDAH78JROuQI4ORRQ5oKM?##
?@@Yd9O2MgZdBlAYzMCUhSnYMlWFwgBoWEun+7zA8A6mZbBEv83ka058iePWKCgtIuG?##
?@@t0xGaUeZrDGU3AgO8J27QKvJzO56WwO0bzWMIF3ehE5g7oH9YQzRxrt81XW4uRsN?##
?@@9WpJ2YhWVMGz+DjKXyYsNNDBiOH9ys63ewV+/ac8jo8GdBs+FG49jQUJPj3jvMCS?##
?@@X2tWxCB//vbXioRoM1qjFRPsjWA8FjQIElCihsljhTzWBf8utpUSN/oRVCnff1mn?##
?@@U8HDIKwql7uYQlprfEcRXapw8MvGx/HGxExaSH3fK4A9H9SqDVEfklz1v/2fCv9v?##
?@@Z5WvjC+sRHc2zlmYKgo9eoJcY+QtC8j4EcpmR47Bsp51NPu+JAJcYjbfh1hris+D?##
?@@sWln+ZdYno0hv8AC4Fm/y6o3/Ag97L+qdtOjSNM6FaQxm1MYPgX+QXltMgGuDnGn?##
?@@Z3BBAtHEQNDRP+1nnPxDZ0m0lMfaJXA2N7HUEb7egsGvBYGGlviiQ+5EULB0StWf?##
?@@A/RbfsHQLXKBqFW/7X3LR43Aq80gDg5pVIF0ROjXLJXAsNGUMy32EIHf3cRZrz5Z?##
?@@74e+T+1Iad7XzmgAr3wtlsKVw5S51UzOCIvIjEFWcyvF6OBfodQv/pC2QaIxtP3u?##
?@@ZiTz374eU2SKflIT6zCba/fPdKXBdUDWxYTop39vlblyCW1exxRUWIp+/Np9jsjO?##
?@@ofg76yvW7F8kk7eECmXy2lj1xZBEgEJcGtV6/JemQcQQPOQ/MMiztM0OvYT7ZLlA?##
?@@xbBkHGCWispthZ5/KZ1zfszYIkFZGMOkB/ssrJ+I3THBhjLFlLMW1kCFhtLkMrRj?##
?@@NcY5R1Vxe+dRNff4DZOToGe1GbNKg384Tr3NgqMFkkSSxzrAwutMiqQXk7mzkYzO?##
?@@qLVrRcoDaPHgoxfl/u/T3ecNh7laOTqsc2loF4qU5CXHGnb0kHH5TEUpTQlZfuyB?##
?@@4JjYqhWBcRVtBHfAsTmwELKvKgFLYgzQXynUijujTvzrVuUVr/rKSZh3XzTQm6lJ?##
?@@/f9O5W8vb39TqysJwRva2sIbIhIwycxgfdrtqZS8rCcOIH3sqp5PiDneOIOG0QFV?##
?@@lDSxfI8SHraAMkikkAUb5fcGQ/4K7tPaKMykV6WaSBkyfCq0Xo5lDpyUE3zvci5E?##
?@@WzhIeADQgmYJ2ygtPd5wfow60WTEu2PVS6IFq7euadHQmcxe/mSvxQ43j9KI5Rhz?##
?@@I/xm6C7SQP0t1UboXzRWBn8oXR51sb/EHNkPbP9bHW7PoCg/8VpjJyKuoeLEll2I?##
?@@5Vrk5nb0C41bGe8dkNjK+kD4zg5aJy3ux09/pFpOF4uJ9xfoVXPbAmdZV4R/nnlU?##
?@@fkjPQUZA7AB9xpAF1Rt6MkMYNNgdkruka9SPBjVibxN2f5LMVoo9Va7BaWgGjjpp?##
?@@v22kInAQg6bsiNP1KPVV3PWa0WW5TwnGZqbVDP0hVnfyNyZEhqsQ/Kwg5fP44mjn?##
?@@5QElqWaDTNIip+Zc9Z/yoYFXhIyYW2RBE1P+rgbIRu2KigZF0ogUA1J0Z3vqB3u5?##
?@@1s3DcpknuImgopfiPBUwx31F5tP62i3O65pKCO3b7+X+JMckeXqt6jqxnpB4OOGi?##
?@@7PpZjJrCqxMVkPBB+ladQjwzvQQsBu0Bl+0zH0ddvACBjiQUSTloajQwyz6xzCps?##
?@@53eAZfLsXua6ihUktEy4vzFiguhmHtYefxhJo/iZUakXcRXBwcb3v6/N4oyPIl98?##
?@@HP9QCfgWk3PURbTf7bBCLQ14hRJlXqRIstc2OGwv60Y=?##
?@@--END ENCRYPTION: "SMX_AES HS UVLO CLAMP", 252 lines, chksum 4ae56a09
*

.ends HS_UVLO_CLAMP


********************************************************************************
***                                                                          ***
***            Auto-generated ASCII Library file for component :             ***
***                              HS_DRIVER.sxcmp                             ***
***                           Created on : 5/1/2024                          ***
***                            At Time : 12:31 AM                            ***
***                           Using version : 9.00d                          ***
***                                                                          ***
********************************************************************************

*** POP Trigger Gate information:
*** This model has no embedded POP trigger gate.

.subckt HS_DRIVER  15 16 17 18 19 20 21

.node_map HB 15
.node_map GATE_DRIVE_HS 16
.node_map INH 17
.node_map UVLO_FAULT_LS 18
.node_map UVLO_FAULT_HS 19
.node_map AGND 20
.node_map HS 21

*
?@@--START ENCRYPTION: "SMX_AES HS DRIVER"
?@@uR6TKpF4URGPg2wgXeMdpL6g6EfMXaQS0ou3VlxRK04R/0wkFWxBCGyGCz0M7AWu?##
?@@HZNnJq2GzyyYf8zlL2wDIkU26SsVCckzBPRPxe+fnJFGQEMMzM4SpVHn/D3SowUG?##
?@@qowbidTeT2zAIj/HGr/BzCSzsady6hBC/TUv/ingzszt32gx+MohG+DyKzNqLC2e?##
?@@ZGQNRPJaYojw64V2p4KlAzSM5dn8Q7tiT1t3Vt85HNhBUpnhMOawm6PVHSS96Tqx?##
?@@LQAlKjqc/W/ZQjidjjlG5H9QPwRjHqYRqVjd9fq/YdJssm6KhYQ3Z3C1QOA5kdOP?##
?@@1fHvaGmXy3zgxkhskbYD+KsBuXTuy1RYHpNjTCjlq/qFTm2HZlzsvdhitW8O8st0?##
?@@O8Mv638qg8hDMo+SasrXK9s+XuYVofToB0hTrGXqKg79nACp3paLjB6Q3HxeYJzP?##
?@@PIRZZH+JHQu1TTrCIITESCUkHl2tEeX4G1FyiEH16uR1+AaYhxa0CZq1aTDIt1xa?##
?@@QLAe7Ti+LMuKefhvzySH1KdNdTm78D0IJI5rIecRSY6rjEy4t5YxKrPpWtSbSCTf?##
?@@XYyjgk8u5Cm01JxcZZCXwsk2GvNBi6+qC6dC9DrjH2PNgseqh+UMwNXreV84qlOf?##
?@@fzImUvpGUr6UI8haHUw+tSlzJ2wB4eaQF4Ff+NtOyR4cacORJZyjQr6e1XI728Ew?##
?@@HCseZQYQpYHOzULLjvR8OICAPeJAxLWZJ6r5LxoGNOWf2RquFJ+6P0CO0/0x1Wkw?##
?@@nx0bErSQ4S+0dQ8NGSH0RCPt3x8JmXkCQ8Z/0T8cP9NgQWvvZlCM4jaJeEGkCLqx?##
?@@5hK084mR5wjMp/Mc+YU3knulokmwtojDaIsNZrY6cGKGTCmZQNQFNKdRLBN3G8i2?##
?@@NYJY6bbkaKBdk2dw8a0qtGUNmcdRDs/WOIQEqmip/bxsGfJmD8Y6huyL3VuzMKt7?##
?@@yDOPr+3oodVab5rRciAfTACzHr3t57lC7zKdSWMzWk3UH3SLkVYPfviy5IsiTf5f?##
?@@zYXZlVgAjtPKVEouJb8zkMlwhOgOG6OctirRG65lpGF+KK6cwDoXZXNjuzFqpEiV?##
?@@wnqeLSaUQQuPmC9NQJ96DcyhCu3rLlCInLAo0fIhUVDfqa7O3jxzDAf1+f38cxzg?##
?@@Pn+kjX5219Y2dyohj6cLRMv0I4vHceqSKScJnu3JpUxTzgU146dAv4My/VuEay5f?##
?@@i8GJncH0OrFPbqlpIUm5gVwaXc4ZbDRndUXlrZsdrQT39Hv9ZffrGlx2T1JoF5Fi?##
?@@pModFrCLKSvXcQPAtstQ7FRV3dpA0NfNpdO7qm8kaPzAKTGyMLoVXXNFLwvfrEUo?##
?@@cPFFpP8Dhf+5OBmvDAN8Tp43n2jm1HtHStnpCDgrgQ2KByd+LDCjrn+MqLPZAokJ?##
?@@3Xh6xWoP0ioQkv8e15OeFmIpZTaCMswh38J7fPpcWu8TfeK6J8SN7fmGudfPuolG?##
?@@xWv+XS/vjh1j/AqatzWou5JGBzPfD6cI1B6wZy3tlO//CUmKotF4uMqSARxNcrdm?##
?@@XoPSLDTxd/UZ4KRbVfrN3KFdQW+7LxNh0AJScpAxG8aqCjLPz+Nz5jXVYhnkszKV?##
?@@HRfc7VkmlCCldLiMq6fm8VIKmQ2DK8iNYkxxaMAvcLa0SqiphcmTpCtc9QYZuVZd?##
?@@G7Bbo4UL6W7ht98TCkMFe7CLJjf2GsUcFV/NE017h8CYz9UBtyMu7DC2Wj/04ZBr?##
?@@MS0TqDRaFzCn/Ck4FoeNDn+QU669wc8URohdrgcY+O2ra1Qd4DZjtO3dwuLtJJR6?##