* DRB021VAM90 D model
* Model Generated by ROHM
* All Rights Reserved
* Commercial Use or 
* Resale Restricted
* Date: 2015/02/02
.MODEL DRB021VAM90 D
+ IS=147.49E-9
+ N=.5455
+ RS=.69346
+ IKF=138.28E-6
+ XTI=2
+ EG=.52
+ CJO=62.000E-12
+ M=.52175
+ VJ=.51906
+ ISR=2.4078E-6
+ NR=1.1000
+ BV=90
+ TRS1=0.002