Version 4.1
SHEET 1 3556 1652
WIRE -656 -576 -656 -608
WIRE -656 -576 -864 -576
WIRE -480 -576 -656 -576
WIRE -384 -576 -480 -576
WIRE -656 -528 -656 -576
WIRE -480 -528 -480 -576
WIRE -384 -528 -384 -576
WIRE -864 -512 -864 -576
WIRE -656 -432 -656 -464
WIRE -480 -432 -480 -464
WIRE -480 -432 -656 -432
WIRE -384 -432 -384 -464
WIRE -384 -432 -480 -432
WIRE -864 -416 -864 -432
WIRE -656 -416 -656 -432
WIRE -144 -256 -144 -320
WIRE 96 -256 -144 -256
WIRE 192 -256 96 -256
WIRE 336 -256 256 -256
WIRE -1408 -224 -1408 -256
WIRE -1264 -224 -1264 -272
WIRE 96 -160 96 -176
WIRE -144 -96 -144 -256
WIRE -64 -96 -144 -96
WIRE 336 -96 336 -256
WIRE 336 -96 256 -96
WIRE 368 -96 336 -96
WIRE -1408 -64 -1408 -144
WIRE -1264 -64 -1264 -144
WIRE -144 -48 -144 -96
WIRE -64 0 -1120 0
WIRE 400 0 256 0
WIRE 640 0 640 -320
WIRE 400 80 400 0
WIRE 432 80 400 80
WIRE 592 80 512 80
WIRE -640 96 -1008 96
WIRE -144 96 -144 32
WIRE -64 96 -144 96
WIRE 368 96 368 -32
WIRE 368 96 256 96
WIRE 640 96 368 96
WIRE 1168 96 640 96
WIRE 1840 112 1744 112
WIRE 1856 112 1840 112
WIRE 1968 112 1936 112
WIRE 2448 112 1968 112
WIRE 2624 112 2528 112
WIRE 2752 112 2624 112
WIRE -1120 128 -1120 0
WIRE -1008 128 -1008 96
WIRE 2624 144 2624 112
WIRE 2752 144 2752 112
WIRE 1840 160 1840 112
WIRE 1872 160 1840 160
WIRE 1968 160 1968 112
WIRE 1968 160 1936 160
WIRE 3136 160 3136 112
WIRE 416 176 400 176
WIRE 592 176 496 176
WIRE -384 192 -416 192
WIRE -64 192 -384 192
WIRE 400 192 400 176
WIRE 400 192 256 192
WIRE 640 208 640 192
WIRE 640 208 416 208
WIRE -1120 240 -1120 208
WIRE -1008 240 -1008 208
WIRE -1008 240 -1120 240
WIRE -1008 272 -1008 240
WIRE 1872 272 1872 160
WIRE 1936 272 1936 160
WIRE -64 288 -128 288
WIRE 416 288 416 208
WIRE 416 288 256 288
WIRE 2624 288 2624 208
WIRE 2624 288 2576 288
WIRE 2752 288 2752 224
WIRE 2752 288 2624 288
WIRE 3136 288 3136 240
WIRE -128 304 -128 288
WIRE 1824 304 1776 304
WIRE 2144 304 1984 304
WIRE -640 336 -640 96
WIRE -416 336 -416 192
WIRE -416 336 -640 336
WIRE 1824 336 1776 336
WIRE 2048 336 1984 336
WIRE 2144 336 2144 304
WIRE 96 384 96 352
WIRE 96 384 -128 384
WIRE 96 400 96 384
WIRE 640 400 640 208
WIRE 640 400 464 400
WIRE 1168 400 640 400
WIRE 1600 416 1600 368
WIRE 464 432 464 400
WIRE 1904 448 1904 416
WIRE -1152 480 -1152 432
WIRE -640 480 -640 336
WIRE -560 480 -640 480
WIRE -416 480 -416 336
WIRE -560 512 -640 512
WIRE 1600 512 1600 496
WIRE 1904 544 1904 528
WIRE 1968 544 1904 544
WIRE 2160 544 2032 544
WIRE 2160 576 2160 544
WIRE -1152 592 -1152 560
WIRE -800 608 -816 608
WIRE -800 640 -800 608
WIRE -816 720 -816 608
WIRE -896 768 -944 768
WIRE -640 768 -640 512
WIRE -640 768 -736 768
WIRE -1296 784 -1296 704
WIRE -1328 800 -1440 800
WIRE -1104 816 -1104 768
WIRE -1104 816 -1264 816
WIRE -896 816 -960 816
WIRE -1328 832 -1392 832
WIRE -1104 896 -1104 816
WIRE -816 896 -816 864
WIRE -816 896 -1104 896
WIRE -1296 928 -1296 848
WIRE -1536 1024 -1680 1024
WIRE -1392 1024 -1392 832
WIRE -1392 1024 -1456 1024
WIRE -1328 1024 -1392 1024
WIRE -1104 1024 -1104 896
WIRE -1104 1024 -1248 1024
WIRE -1680 1104 -1680 1024
WIRE -1680 1264 -1680 1184
WIRE -1248 1328 -1328 1328
WIRE -1040 1328 -1040 1264
WIRE -1040 1328 -1248 1328
WIRE -992 1328 -1040 1328
WIRE -704 1328 -704 1264
WIRE -704 1328 -752 1328
WIRE -448 1328 -704 1328
WIRE -1328 1376 -1328 1328
WIRE -1248 1392 -1248 1328
WIRE -1088 1392 -1184 1392
WIRE -1088 1424 -1088 1392
WIRE -992 1424 -1088 1424
WIRE -512 1424 -752 1424
WIRE -448 1424 -448 1328
WIRE -688 1488 -752 1488
WIRE -1328 1520 -1328 1456
WIRE -1120 1520 -1328 1520
WIRE -992 1520 -1120 1520
WIRE -640 1520 -752 1520
WIRE -640 1552 -640 1520
WIRE -640 1552 -752 1552
WIRE -1248 1584 -1248 1456
WIRE -1184 1584 -1184 1456
WIRE -1184 1584 -1248 1584
WIRE -1056 1584 -1184 1584
WIRE -992 1584 -1056 1584
WIRE -704 1584 -752 1584
WIRE -512 1584 -512 1488
WIRE -512 1584 -704 1584
WIRE -448 1584 -448 1488
WIRE -448 1584 -512 1584
WIRE -1056 1632 -1056 1584
WIRE -704 1632 -704 1584
FLAG 96 400 0
FLAG 464 432 0
FLAG 1168 96 Mot
FLAG 1168 400 RetMot
FLAG 640 -320 Cbulk
FLAG -656 -416 0
FLAG -656 -608 Cbulk
FLAG -864 -416 0
FLAG 1744 112 Mot
FLAG 2576 288 RetMot
FLAG -144 -320 +12V
FLAG -1408 -64 0
FLAG -1264 -64 0
FLAG -1408 -256 +12V
FLAG -1264 -272 +3V3
FLAG -1008 272 0
FLAG 1600 512 0
FLAG 1600 368 Vref
FLAG 1776 336 Vref
FLAG 2048 336 Vref
FLAG 2144 336 0
FLAG 1776 304 +3V3
FLAG 1904 544 Iout
FLAG -1440 800 Iout
FLAG -1296 704 +3V3
FLAG -1296 928 0
FLAG -960 816 Clock
FLAG 3136 288 0
FLAG 3136 112 VLoad
FLAG -1680 1264 0
FLAG -1152 592 0
FLAG -1152 432 Clock
FLAG -640 768 SRout
FLAG -640 96 PWMIN
FLAG -384 192 PWM
FLAG -944 768 +3V3
FLAG -800 640 0
FLAG -1040 1264 +3V3
FLAG -704 1264 +3V3
FLAG -1056 1632 0
FLAG -704 1632 0
FLAG -688 1488 Iout
FLAG -1120 1520 Iiso
FLAG 2160 576 0
SYMBOL schottky 192 -240 R270
WINDOW 0 32 32 VTop 2
WINDOW 3 0 32 VBottom 2
SYMATTR InstName D1
SYMATTR Value MBRS360
SYMBOL cap 352 -96 R0
SYMATTR InstName C1
SYMATTR Value 1µ
SYMATTR SpiceLine V=50 Irms=0 Rser=0.0444 Lser=799p mfg="Würth Elektronik" pn="885012209047 WCAP-CSGP 1210" type="X7R"
SYMBOL voltage -864 -528 R0
WINDOW 123 0 0 Left 0
WINDOW 39 0 0 Left 0
SYMATTR InstName V1
SYMATTR Value 29
SYMBOL res 1840 128 R270
WINDOW 0 32 56 VTop 2
WINDOW 3 0 56 VBottom 2
SYMATTR InstName R1
SYMATTR Value 1m
SYMATTR SpiceLine tol=1 pwr=3
SYMBOL ind 2544 96 R90
WINDOW 0 5 56 VBottom 2
WINDOW 3 32 56 VTop 2
SYMATTR InstName L5
SYMATTR Value 70µ
SYMBOL cap 2608 144 R0
SYMATTR InstName C3
SYMATTR Value 10µ
SYMBOL res -144 288 R0
SYMATTR InstName R3
SYMATTR Value 40.2K
SYMATTR SpiceLine tol=1 pwr=0.1
SYMBOL cap -672 -528 R0
SYMATTR Value 10000µ
SYMATTR InstName C2
SYMATTR SpiceLine V=63 Irms=4.69 Rser=0.0175 Lser=20.255n mfg="Würth Elektronik" pn="861140786024 WCAP-AI3H 35x52" type="Al electrolytic"
SYMBOL cap -496 -528 R0
SYMATTR InstName C4
SYMATTR Value 10µ
SYMATTR SpiceLine V=50 Irms=0 Rser=0.003 Lser=1.2n mfg="Würth Elektronik" pn="885012214005 WCAP-CSGP 2220" type="X7R"
SYMBOL cap -400 -528 R0
SYMATTR InstName C5
SYMATTR Value 75µ
SYMATTR SpiceLine V=900 Irms=25.7 Rser=0.0043 Lser=41n mfg="Würth Elektronik" pn="890724429010CS WCAP-FTDB 52.5x57x65x45x4" type="Box"
SYMBOL res 80 -272 R0
SYMATTR InstName R4
SYMATTR Value 10
SYMBOL res -160 -64 R0
SYMATTR InstName R5
SYMATTR Value 51k
SYMBOL voltage -1408 -240 R0
WINDOW 123 0 0 Left 0
WINDOW 39 0 0 Left 0
SYMATTR InstName V2
SYMATTR Value 12
SYMBOL voltage -1264 -240 R0
WINDOW 123 0 0 Left 0
WINDOW 39 0 0 Left 0
SYMATTR InstName V3
SYMATTR Value 3.3
SYMBOL voltage -1008 112 R0
WINDOW 123 0 0 Left 0
WINDOW 39 0 0 Left 0
SYMATTR InstName V4
SYMATTR Value PULSE(0 3.3 0 1n 1n {1/60k} {1/30k})
SYMBOL voltage -1120 112 R0
WINDOW 123 0 0 Left 0
WINDOW 39 0 0 Left 0
WINDOW 3 -85 90 Left 2
SYMATTR Value PULSE(0 3.3 2.1m 1n 1n 4m)
SYMATTR InstName V5
SYMBOL res 528 64 R90
WINDOW 0 0 56 VBottom 2
WINDOW 3 32 56 VTop 2
SYMATTR InstName R6
SYMATTR Value 5
SYMBOL res 512 160 R90
WINDOW 0 0 56 VBottom 2
WINDOW 3 32 56 VTop 2
SYMATTR InstName R7
SYMATTR Value 5
SYMBOL MOSFETs\\OptiMOS6\\Halfbridge_NMOS 592 96 R0
SYMATTR InstName U2
SYMATTR SpiceModel ISG0613N04NM6H_L1
SYMBOL PowerProducts\\LTC7063 96 96 R0
SYMATTR InstName U3
SYMBOL OpAmps\\AD8411A 1904 304 M90
WINDOW 0 62 -48 VLeft 2
WINDOW 3 64 140 VLeft 2
SYMATTR InstName U1
SYMBOL voltage 1600 400 R0
WINDOW 123 0 0 Left 0
WINDOW 39 0 0 Left 0
SYMATTR InstName V6
SYMATTR Value 0
SYMBOL Digital\\and -528 432 R0
SYMATTR InstName A1
SYMATTR SpiceLine Vhigh=3.3 Vlow=0
SYMBOL voltage 3136 144 R0
WINDOW 123 0 0 Left 0
WINDOW 39 0 0 Left 0
SYMATTR InstName V8
SYMATTR Value PULSE(1 10 2m 100u 10n 4m 7m)
SYMBOL res 2736 128 R0
SYMATTR InstName R2
SYMATTR Value 2
SYMBOL Comparators\\LTC1441 -1296 752 R0
SYMATTR InstName U5
SYMBOL res -1232 1008 R90
WINDOW 0 0 56 VBottom 2
WINDOW 3 32 56 VTop 2
SYMATTR InstName R10
SYMATTR Value 100k
SYMBOL res -1440 1008 R90
WINDOW 0 0 56 VBottom 2
WINDOW 3 32 56 VTop 2
SYMATTR InstName R8
SYMATTR Value 330
SYMBOL voltage -1680 1088 R0
WINDOW 123 0 0 Left 0
WINDOW 39 0 0 Left 0
SYMATTR InstName V7
SYMATTR Value 0.25
SYMBOL voltage -1152 464 R0
WINDOW 123 0 0 Left 0
WINDOW 39 0 0 Left 0
SYMATTR InstName V9
SYMATTR Value PULSE(0 3.3 0 1n 1n 1u {1/10k})
SYMBOL Digital\\dflop -816 720 R0
WINDOW 39 45 -73 Left 2
SYMATTR InstName A3
SYMATTR SpiceLine Vhigh=3.3 Vlow=0
SYMBOL ADuM3190\\ADuM3190 -992 1600 R0
SYMATTR InstName U4
SYMBOL cap -528 1424 R0
SYMATTR InstName C6
SYMATTR Value 1µ
SYMBOL cap -464 1424 R0
SYMATTR InstName C7
SYMATTR Value 1µ
SYMBOL cap -1264 1392 R0
SYMATTR InstName C8
SYMATTR Value 1µ
SYMBOL cap -1200 1392 R0
SYMATTR InstName C9
SYMATTR Value 1µ
SYMBOL res -1344 1360 R0
SYMATTR InstName R9
SYMATTR Value 10k
SYMBOL res 1888 432 R0
SYMATTR InstName R11
SYMATTR Value 10k
SYMBOL cap 2032 528 R90
WINDOW 0 0 32 VBottom 2
WINDOW 3 32 32 VTop 2
SYMATTR InstName C10
SYMATTR Value 15p
TEXT 8 464 Left 2 !.tran 0 4m 2m
TEXT 680 -400 Left 2 !.INCLUDE MOSFETS\\OptiMOS6\\OptiMOS6_40V_Halfbridges_LTSpice.lib
TEXT 488 496 Left 2 !.options reltol=1e-3 abstol=50n
TEXT -296 1208 Left 2 !.inc C:\\Users\\conor\\Documents\\College\\Masters\\Thesis\\GeecPE2526\\Simulation\\ADuM3190\\ADuM3190B.sub
