Version 4.1
SHEET 1 1376 1056
WIRE 160 240 -336 240
WIRE 304 240 160 240
WIRE 496 240 304 240
WIRE 304 304 304 240
WIRE 304 448 304 384
WIRE -336 560 -336 240
WIRE -336 560 -448 560
WIRE -208 560 -336 560
WIRE 160 560 160 240
WIRE 160 560 32 560
WIRE 176 560 160 560
WIRE -448 624 -448 560
WIRE 912 624 640 624
WIRE 464 640 208 640
WIRE 496 640 496 240
WIRE -208 656 -288 656
WIRE 128 656 32 656
WIRE -336 672 -336 560
WIRE -288 672 -288 656
WIRE 208 688 208 640
WIRE 208 688 32 688
WIRE 640 688 640 624
WIRE 640 688 528 688
WIRE 384 720 32 720
WIRE -448 752 -448 704
WIRE -208 752 -448 752
WIRE 64 752 32 752
WIRE 128 752 128 656
WIRE 176 752 176 560
WIRE 592 752 528 752
WIRE 592 768 592 752
WIRE 640 768 592 768
WIRE -208 784 -400 784
WIRE 64 784 64 752
WIRE 64 784 32 784
WIRE 912 784 912 624
WIRE -336 816 -336 736
WIRE -288 816 -288 736
WIRE -288 816 -336 816
WIRE -224 816 -288 816
WIRE -208 816 -224 816
WIRE 64 816 32 816
WIRE 128 816 64 816
WIRE 176 816 128 816
WIRE 464 816 464 800
WIRE 464 816 448 816
WIRE 480 816 464 816
WIRE 496 816 496 800
WIRE 496 816 480 816
WIRE 480 848 480 816
WIRE 640 848 640 768
WIRE 64 864 64 816
WIRE -224 880 -224 816
WIRE 640 976 640 928
WIRE 912 976 912 864
WIRE 912 976 640 976
FLAG 64 864 0
FLAG -224 880 0
FLAG 480 848 0
FLAG 304 448 0
SYMBOL OpAmps\\AD8411A 496 720 M0
SYMATTR InstName U1
SYMBOL ADuM3190\\ADuM3190 -208 832 R0
SYMATTR InstName U2
SYMBOL res -464 608 R0
SYMATTR InstName R1
SYMATTR Value 12k
SYMBOL res 624 672 R0
SYMATTR InstName R2
SYMATTR Value 10
SYMBOL res 624 832 R0
SYMATTR InstName R3
SYMATTR Value 12k
SYMBOL voltage 304 288 R0
WINDOW 123 0 0 Left 0
WINDOW 39 0 0 Left 0
SYMATTR InstName V1
SYMATTR Value 3.3
SYMBOL voltage 912 768 R0
WINDOW 123 0 0 Left 0
WINDOW 39 0 0 Left 0
SYMATTR InstName V2
SYMATTR Value PULSE(10 30 0 50u 50u 0 100u)
SYMBOL cap 112 752 R0
SYMATTR InstName C1
SYMATTR Value 1ç
SYMBOL cap 160 752 R0
SYMATTR InstName C2
SYMATTR Value 1ç
SYMBOL cap -352 672 R0
SYMATTR InstName C3
SYMATTR Value 1ç
SYMBOL cap -304 672 R0
SYMATTR InstName C4
SYMATTR Value 1ç
TEXT -464 984 Left 2 !.tran 10m
TEXT 16 1040 Left 2 !.INCLUDE ADuM3190\\ADuM3190B.sub
