Version 4.1
SHEET 1 2808 680
WIRE -800 -576 -864 -576
WIRE -656 -576 -656 -608
WIRE -656 -576 -720 -576
WIRE -480 -576 -656 -576
WIRE -384 -576 -480 -576
WIRE -656 -528 -656 -576
WIRE -480 -528 -480 -576
WIRE -384 -528 -384 -576
WIRE -864 -512 -864 -576
WIRE -656 -432 -656 -464
WIRE -480 -432 -480 -464
WIRE -480 -432 -656 -432
WIRE -384 -432 -384 -464
WIRE -384 -432 -480 -432
WIRE -864 -416 -864 -432
WIRE -656 -416 -656 -432
WIRE -144 -256 -144 -320
WIRE 96 -256 -144 -256
WIRE 192 -256 96 -256
WIRE 336 -256 256 -256
WIRE -1408 -224 -1408 -256
WIRE -1264 -224 -1264 -272
WIRE 96 -160 96 -176
WIRE -144 -96 -144 -256
WIRE -64 -96 -144 -96
WIRE 336 -96 336 -256
WIRE 336 -96 256 -96
WIRE 368 -96 336 -96
WIRE -1408 -64 -1408 -144
WIRE -1264 -64 -1264 -144
WIRE -144 -48 -144 -96
WIRE -64 0 -192 0
WIRE 400 0 256 0
WIRE 640 0 640 -320
WIRE 800 0 752 0
WIRE -208 32 -208 0
WIRE 784 32 752 32
WIRE -544 48 -608 48
WIRE 816 64 752 64
WIRE 400 80 400 0
WIRE 592 80 400 80
WIRE -816 96 -1008 96
WIRE -144 96 -144 32
WIRE -64 96 -144 96
WIRE 368 96 368 -32
WIRE 368 96 256 96
WIRE 640 96 368 96
WIRE 1168 96 640 96
WIRE 1840 112 1744 112
WIRE 1856 112 1840 112
WIRE 1968 112 1936 112
WIRE 2448 112 1968 112
WIRE 2624 112 2528 112
WIRE 2752 112 2624 112
WIRE -1008 128 -1008 96
WIRE 816 128 752 128
WIRE -544 144 -608 144
WIRE 2624 144 2624 112
WIRE 2752 144 2752 112
WIRE 784 160 752 160
WIRE 1840 160 1840 112
WIRE 1968 160 1968 112
WIRE 592 176 400 176
WIRE -64 192 -176 192
WIRE 400 192 400 176
WIRE 400 192 256 192
WIRE 816 192 752 192
WIRE 2256 192 2192 192
WIRE 640 208 640 192
WIRE 640 208 416 208
WIRE 2256 224 2256 192
WIRE 2160 240 2160 192
WIRE 2192 240 2192 192
WIRE -1008 272 -1008 208
WIRE 640 272 640 208
WIRE -64 288 -128 288
WIRE 416 288 416 208
WIRE 416 288 256 288
WIRE 1840 288 1840 240
WIRE 2128 288 1840 288
WIRE 2624 288 2624 208
WIRE 2624 288 2576 288
WIRE 2752 288 2752 224
WIRE 2752 288 2624 288
WIRE -128 304 -128 288
WIRE 2336 320 2272 320
WIRE 1968 352 1968 240
WIRE 2128 352 1968 352
WIRE 96 384 96 352
WIRE 96 384 -128 384
WIRE 96 400 96 384
WIRE 496 400 464 400
WIRE 640 400 640 352
WIRE 640 400 576 400
WIRE 1168 400 640 400
WIRE 464 432 464 400
WIRE 2160 432 2160 400
WIRE 2176 432 2160 432
WIRE 2192 432 2192 400
WIRE 2192 432 2176 432
WIRE 2176 448 2176 432
FLAG 96 400 0
FLAG 800 0 Heatsink
FLAG 816 64 SINKbot
FLAG 816 128 Heatsink
FLAG 816 192 SINKbot
FLAG 464 432 0
FLAG 1168 96 Mot
FLAG 1168 400 RetMot
FLAG 640 -320 Cbulk
FLAG -656 -416 0
FLAG -656 -608 Cbulk
FLAG -864 -416 0
FLAG 784 160 TJL
FLAG 784 32 TJH
FLAG 2176 448 0
FLAG 2256 224 0
FLAG 2160 192 +3V3
FLAG 2336 320 Iout
FLAG 1744 112 Mot
FLAG 2576 288 RetMot
FLAG -144 -320 +12V
FLAG -1408 -64 0
FLAG -1264 -64 0
FLAG -1408 -256 +12V
FLAG -1264 -272 +3V3
FLAG -1008 272 0
FLAG -176 192 +3V3
FLAG -208 32 0
SYMBOL PowerProducts\\LTC7066 96 96 R0
WINDOW 3 -23 40 Center 2
SYMATTR InstName U1
SYMBOL PWMGen\\PWMGen -704 96 R0
SYMATTR InstName X1
SYMATTR SpiceLine DT=100n CDT={DT/(0.069*1k)} FREQ=20k
SYMBOL schottky 192 -240 R270
WINDOW 0 32 32 VTop 2
WINDOW 3 0 32 VBottom 2
SYMATTR InstName D1
SYMATTR Value MBRS360
SYMBOL cap 352 -96 R0
SYMATTR InstName C1
SYMATTR Value 1µ
SYMATTR SpiceLine V=50 Irms=0 Rser=0.0444 Lser=799p mfg="Würth Elektronik" pn="885012209047 WCAP-CSGP 1210" type="X7R"
SYMBOL ind 736 -256 R0
SYMATTR InstName L1
SYMATTR Value 10n
SYMBOL ind 624 256 R0
SYMATTR InstName L2
SYMATTR Value 10n
SYMBOL ind 592 384 R90
WINDOW 0 5 56 VBottom 2
WINDOW 3 32 56 VTop 2
SYMATTR InstName L3
SYMATTR Value 30n
SYMBOL ind -704 -592 R90
WINDOW 0 5 56 VBottom 2
WINDOW 3 32 56 VTop 2
SYMATTR InstName L4
SYMATTR Value 200n
SYMBOL voltage -864 -528 R0
WINDOW 123 0 0 Left 0
WINDOW 39 0 0 Left 0
SYMATTR InstName V1
SYMATTR Value 29
SYMBOL res 1952 96 R90
WINDOW 0 0 56 VBottom 2
WINDOW 3 32 56 VTop 2
SYMATTR InstName R1
SYMATTR Value .5m
SYMBOL ind 2544 96 R90
WINDOW 0 5 56 VBottom 2
WINDOW 3 32 56 VTop 2
SYMATTR InstName L5
SYMATTR Value 70µ
SYMBOL cap 2608 144 R0
SYMATTR InstName C3
SYMATTR Value 2µ
SYMBOL res 2736 128 R0
SYMATTR InstName R2
SYMATTR Value 5
SYMBOL res -144 288 R0
SYMATTR InstName R3
SYMATTR Value 40.2K
SYMATTR SpiceLine tol=1 pwr=0.1
SYMBOL cap -672 -528 R0
WINDOW 3 24 56 Left 2
SYMATTR InstName C2
SYMATTR Value 10000µ
SYMATTR Description Capacitor
SYMATTR Type cap
SYMATTR SpiceLine V=63 Irms=4.69 Rser=0.0175 Lser=20.255n mfg="Würth Elektronik" pn="861140786024 WCAP-AI3H 35x52" type="Al electrolytic"
SYMBOL cap -496 -528 R0
SYMATTR InstName C4
SYMATTR Value 10µ
SYMATTR SpiceLine V=50 Irms=0 Rser=0.003 Lser=1.2n mfg="Würth Elektronik" pn="885012214005 WCAP-CSGP 2220" type="X7R"
SYMBOL cap -400 -528 R0
SYMATTR InstName C5
SYMATTR Value 75µ
SYMATTR SpiceLine V=900 Irms=25.7 Rser=0.0043 Lser=41n mfg="Würth Elektronik" pn="890724429010CS WCAP-FTDB 52.5x57x65x45x4" type="Box"
SYMBOL res 80 -272 R0
SYMATTR InstName R4
SYMATTR Value 10
SYMBOL res -160 -64 R0
SYMATTR InstName R5
SYMATTR Value 51k
SYMBOL voltage -1408 -240 R0
WINDOW 123 0 0 Left 0
WINDOW 39 0 0 Left 0
SYMATTR InstName V2
SYMATTR Value 12
SYMBOL voltage -1264 -240 R0
WINDOW 123 0 0 Left 0
WINDOW 39 0 0 Left 0
SYMATTR InstName V3
SYMATTR Value 3.3
SYMBOL res 1952 144 R0
SYMATTR InstName R6
SYMATTR Value 10
SYMBOL res 1824 144 R0
SYMATTR InstName R7
SYMATTR Value 10
SYMBOL voltage -1008 112 R0
WINDOW 123 0 0 Left 0
WINDOW 39 0 0 Left 0
SYMATTR InstName V4
SYMATTR Value 0.75
SYMBOL MOSFETs\\OptiMOS6\\Halfbridge_NMOS 592 96 R0
SYMATTR InstName U2
SYMATTR SpiceModel ISG0613N04NM6H_L1
TEXT 8 464 Left 2 !.tran 0 1m 0
TEXT 680 -400 Left 2 !.INCLUDE MOSFETS\\OptiMOS6\\OptiMOS6_40V_Halfbridges_LTSpice.lib
