Version 4.1
SHEET 1 880 680
WIRE 256 0 -368 0
WIRE 688 0 448 0
WIRE 448 48 448 0
WIRE 256 128 256 0
WIRE 64 144 -144 144
WIRE 96 144 64 144
WIRE 688 144 688 0
WIRE -368 160 -368 0
WIRE -144 160 -144 144
WIRE 96 176 96 144
WIRE 240 176 96 176
WIRE 416 176 336 176
WIRE 448 176 448 128
WIRE 448 176 416 176
WIRE -368 288 -368 240
WIRE -144 288 -144 240
WIRE 688 288 688 224
FLAG -144 288 0
FLAG 688 288 0
FLAG -368 288 0
FLAG 416 176 Out
FLAG 64 144 In
SYMBOL voltage -144 144 R0
WINDOW 3 20 129 Left 2
WINDOW 123 0 0 Left 0
WINDOW 39 0 0 Left 0
SYMATTR InstName V1
SYMATTR Value PULSE(0 3.3 0 1m 1m 100m 500m)
SYMBOL voltage 688 128 R0
WINDOW 123 0 0 Left 0
WINDOW 39 0 0 Left 0
SYMATTR InstName V2
SYMATTR Value 5V
SYMBOL nmos 336 128 R90
SYMATTR InstName M1
SYMATTR Value BSS123
SYMBOL res 432 32 R0
SYMATTR InstName R1
SYMATTR Value 10k
SYMBOL voltage -368 144 R0
WINDOW 123 0 0 Left 0
WINDOW 39 0 0 Left 0
SYMATTR InstName V3
SYMATTR Value 3.3
TEXT -176 312 Left 2 !.tran 1
