Version 4.1
SHEET 1 3556 1172
WIRE -656 -576 -656 -608
WIRE -656 -576 -864 -576
WIRE -480 -576 -656 -576
WIRE -384 -576 -480 -576
WIRE -656 -528 -656 -576
WIRE -480 -528 -480 -576
WIRE -384 -528 -384 -576
WIRE -864 -512 -864 -576
WIRE -656 -432 -656 -464
WIRE -480 -432 -480 -464
WIRE -480 -432 -656 -432
WIRE -384 -432 -384 -464
WIRE -384 -432 -480 -432
WIRE -864 -416 -864 -432
WIRE -656 -416 -656 -432
WIRE -144 -256 -144 -320
WIRE 96 -256 -144 -256
WIRE 192 -256 96 -256
WIRE 336 -256 256 -256
WIRE -1408 -224 -1408 -256
WIRE -1264 -224 -1264 -272
WIRE 96 -160 96 -176
WIRE -144 -96 -144 -256
WIRE -64 -96 -144 -96
WIRE 336 -96 336 -256
WIRE 336 -96 256 -96
WIRE 368 -96 336 -96
WIRE -1408 -64 -1408 -144
WIRE -1264 -64 -1264 -144
WIRE -144 -48 -144 -96
WIRE -64 0 -1120 0
WIRE 400 0 256 0
WIRE 640 0 640 -320
WIRE 400 80 400 0
WIRE 432 80 400 80
WIRE 592 80 512 80
WIRE -640 96 -1008 96
WIRE -144 96 -144 32
WIRE -64 96 -144 96
WIRE 368 96 368 -32
WIRE 368 96 256 96
WIRE 640 96 368 96
WIRE 1168 96 640 96
WIRE 1840 112 1744 112
WIRE 1856 112 1840 112
WIRE 1968 112 1936 112
WIRE 2448 112 1968 112
WIRE 2624 112 2528 112
WIRE 2752 112 2624 112
WIRE -1120 128 -1120 0
WIRE -1008 128 -1008 96
WIRE 2624 144 2624 112
WIRE 2752 144 2752 112
WIRE 1840 160 1840 112
WIRE 1872 160 1840 160
WIRE 1968 160 1968 112
WIRE 1968 160 1936 160
WIRE 3136 160 3136 112
WIRE 416 176 400 176
WIRE 592 176 496 176
WIRE -64 192 -416 192
WIRE 400 192 400 176
WIRE 400 192 256 192
WIRE 640 208 640 192
WIRE 640 208 416 208
WIRE -1120 240 -1120 208
WIRE -1008 240 -1008 208
WIRE -1008 240 -1120 240
WIRE -1008 272 -1008 240
WIRE 1872 272 1872 160
WIRE 1936 272 1936 160
WIRE -64 288 -128 288
WIRE 416 288 416 208
WIRE 416 288 256 288
WIRE 2624 288 2624 208
WIRE 2624 288 2576 288
WIRE 2752 288 2752 224
WIRE 2752 288 2624 288
WIRE 3136 288 3136 240
WIRE -128 304 -128 288
WIRE 1824 304 1776 304
WIRE 2144 304 1984 304
WIRE 1824 336 1776 336
WIRE 2048 336 1984 336
WIRE 2144 336 2144 304
WIRE 96 384 96 352
WIRE 96 384 -128 384
WIRE 96 400 96 384
WIRE 640 400 640 208
WIRE 640 400 464 400
WIRE 1168 400 640 400
WIRE 1600 416 1600 368
WIRE 464 432 464 400
WIRE -640 480 -640 96
WIRE -560 480 -640 480
WIRE -416 480 -416 192
WIRE -416 480 -496 480
WIRE -560 512 -640 512
WIRE 1600 512 1600 496
WIRE 1904 544 1904 416
WIRE -1328 576 -1392 576
WIRE -832 768 -896 768
WIRE -1296 784 -1296 704
WIRE -1328 800 -1440 800
WIRE -928 800 -960 800
WIRE -1168 816 -1264 816
WIRE -928 816 -928 800
WIRE -832 816 -928 816
WIRE -640 816 -640 512
WIRE -640 816 -720 816
WIRE -1328 832 -1392 832
WIRE -1600 848 -1600 832
WIRE -1296 928 -1296 848
WIRE -1600 992 -1600 928
WIRE -1392 992 -1392 832
WIRE -1392 992 -1600 992
WIRE -1600 1024 -1600 992
WIRE -1392 1024 -1392 992
WIRE -1328 1024 -1392 1024
WIRE -1168 1024 -1168 816
WIRE -1168 1024 -1248 1024
WIRE -1088 1024 -1120 1024
WIRE -976 1024 -1008 1024
WIRE -1120 1040 -1120 1024
WIRE -1120 1120 -1120 1104
WIRE -1120 1152 -1120 1120
FLAG 96 400 0
FLAG 464 432 0
FLAG 1168 96 Mot
FLAG 1168 400 RetMot
FLAG 640 -320 Cbulk
FLAG -656 -416 0
FLAG -656 -608 Cbulk
FLAG -864 -416 0
FLAG 1744 112 Mot
FLAG 2576 288 RetMot
FLAG -144 -320 +12V
FLAG -1408 -64 0
FLAG -1264 -64 0
FLAG -1408 -256 +12V
FLAG -1264 -272 +3V3
FLAG -1008 272 0
FLAG 1600 512 0
FLAG 1600 368 Vref
FLAG 1776 336 Vref
FLAG 2048 336 Vref
FLAG 2144 336 0
FLAG 1776 304 +3V3
FLAG 1904 544 Iout
FLAG -1440 800 Iout
FLAG -1600 1104 0
FLAG -1296 704 +3V3
FLAG -1296 928 0
FLAG -1008 96 Clock
FLAG -896 768 Clock
FLAG 3136 288 0
FLAG 3136 112 VLoad
FLAG -1120 1152 0
FLAG -1600 832 +3V3
SYMBOL schottky 192 -240 R270
WINDOW 0 32 32 VTop 2
WINDOW 3 0 32 VBottom 2
SYMATTR InstName D1
SYMATTR Value MBRS360
SYMBOL cap 352 -96 R0
SYMATTR InstName C1
SYMATTR Value 1Ą
SYMATTR SpiceLine V=50 Irms=0 Rser=0.0444 Lser=799p mfg="W³rth Elektronik" pn="885012209047 WCAP-CSGP 1210" type="X7R"
SYMBOL voltage -864 -528 R0
WINDOW 123 0 0 Left 0
WINDOW 39 0 0 Left 0
SYMATTR InstName V1
SYMATTR Value 29
SYMBOL res 1840 128 R270
WINDOW 0 32 56 VTop 2
WINDOW 3 0 56 VBottom 2
SYMATTR InstName R1
SYMATTR Value .5m
SYMATTR SpiceLine tol=1 pwr=3
SYMBOL ind 2544 96 R90
WINDOW 0 5 56 VBottom 2
WINDOW 3 32 56 VTop 2
SYMATTR InstName L5
SYMATTR Value 70Ą
SYMBOL cap 2608 144 R0
SYMATTR InstName C3
SYMATTR Value 10Ą
SYMBOL res -144 288 R0
SYMATTR InstName R3
SYMATTR Value 40.2K
SYMATTR SpiceLine tol=1 pwr=0.1
SYMBOL cap -672 -528 R0
SYMATTR Value 10000Ą
SYMATTR InstName C2
SYMATTR SpiceLine V=63 Irms=4.69 Rser=0.0175 Lser=20.255n mfg="W³rth Elektronik" pn="861140786024 WCAP-AI3H 35x52" type="Al electrolytic"
SYMBOL cap -496 -528 R0
SYMATTR InstName C4
SYMATTR Value 10Ą
SYMATTR SpiceLine V=50 Irms=0 Rser=0.003 Lser=1.2n mfg="W³rth Elektronik" pn="885012214005 WCAP-CSGP 2220" type="X7R"
SYMBOL cap -400 -528 R0
SYMATTR InstName C5
SYMATTR Value 75Ą
SYMATTR SpiceLine V=900 Irms=25.7 Rser=0.0043 Lser=41n mfg="W³rth Elektronik" pn="890724429010CS WCAP-FTDB 52.5x57x65x45x4" type="Box"
SYMBOL res 80 -272 R0
SYMATTR InstName R4
SYMATTR Value 10
SYMBOL res -160 -64 R0
SYMATTR InstName R5
SYMATTR Value 51k
SYMBOL voltage -1408 -240 R0
WINDOW 123 0 0 Left 0
WINDOW 39 0 0 Left 0
SYMATTR InstName V2
SYMATTR Value 12
SYMBOL voltage -1264 -240 R0
WINDOW 123 0 0 Left 0
WINDOW 39 0 0 Left 0
SYMATTR InstName V3
SYMATTR Value 3.3
SYMBOL voltage -1008 112 R0
WINDOW 123 0 0 Left 0
WINDOW 39 0 0 Left 0
SYMATTR InstName V4
SYMATTR Value PULSE(0 3.3 0 1n 1n {1/20k} {1/10k})
SYMBOL voltage -1120 112 R0
WINDOW 123 0 0 Left 0
WINDOW 39 0 0 Left 0
WINDOW 3 -85 90 Left 2
SYMATTR InstName V5
SYMATTR Value 3.3
SYMBOL res 528 64 R90
WINDOW 0 0 56 VBottom 2
WINDOW 3 32 56 VTop 2
SYMATTR InstName R6
SYMATTR Value 5
SYMBOL res 512 160 R90
WINDOW 0 0 56 VBottom 2
WINDOW 3 32 56 VTop 2
SYMATTR InstName R7
SYMATTR Value 5
SYMBOL MOSFETs\\OptiMOS6\\Halfbridge_NMOS 592 96 R0
SYMATTR InstName U2
SYMATTR SpiceModel ISG0613N04NM6H_L1
SYMBOL PowerProducts\\LTC7063 96 96 R0
SYMATTR InstName U3
SYMBOL OpAmps\\AD8411A 1904 304 M90
WINDOW 0 62 -48 VLeft 2
WINDOW 3 64 140 VLeft 2
SYMATTR InstName U1
SYMBOL voltage 1600 400 R0
WINDOW 123 0 0 Left 0
WINDOW 39 0 0 Left 0
SYMATTR InstName V6
SYMATTR Value 0
SYMBOL Digital\\srflop -784 720 R0
SYMATTR InstName A2
SYMATTR Value2 Vhigh=3.3 Vlow=0
SYMBOL Digital\\and -528 432 R0
SYMATTR InstName A1
SYMATTR SpiceLine Vhigh=3.3 Vlow=0
SYMBOL voltage 3136 144 R0
WINDOW 123 0 0 Left 0
WINDOW 39 0 0 Left 0
SYMATTR InstName V8
SYMATTR Value PULSE(1 10 2m 100u 10n 4m 7m)
SYMBOL res 2736 128 R0
SYMATTR InstName R2
SYMATTR Value 2
SYMBOL res -1136 1024 R0
SYMATTR InstName R8
SYMATTR Value 50
SYMBOL res -992 1008 R90
WINDOW 0 0 56 VBottom 2
WINDOW 3 32 56 VTop 2
SYMATTR InstName R9
SYMATTR Value 10k
SYMBOL Comparators\\LTC1441 -1296 752 R0
SYMATTR InstName U5
SYMBOL res -1232 1008 R90
WINDOW 0 0 56 VBottom 2
WINDOW 3 32 56 VTop 2
SYMATTR InstName R10
SYMATTR Value 10k
SYMBOL res -1616 832 R0
SYMATTR InstName R11
SYMATTR Value 10k
SYMBOL res -1616 1008 R0
SYMATTR InstName R12
SYMATTR Value 750
TEXT 8 464 Left 2 !.tran 0 10m 0
TEXT 680 -400 Left 2 !.INCLUDE MOSFETS\\OptiMOS6\\OptiMOS6_40V_Halfbridges_LTSpice.lib
TEXT 488 496 Left 2 !.options reltol=1e-3 abstol=5u
