* E:\Documents\Masters\Project\Simulation\Draft1.asc
* Generated by LTspice 24.1.9 for Windows.
X§U1 NC_01 NC_02 NC_03 NC_04 NC_05 NC_06 NC_07 NC_08 lm5104
.tran 1ms
.lib E:\Documents\Masters\Project\Simulation\LM5104_PSPICE_TRANS\LM5104_TRANS.lib
.backanno
.end
