Version 4.1
SHEET 1 1408 776
WIRE -224 -368 -336 -368
WIRE 48 -368 -32 -368
WIRE -336 -336 -336 -368
WIRE -224 -336 -336 -336
WIRE 48 -336 -32 -336
WIRE 112 -336 48 -336
WIRE 208 -336 176 -336
WIRE 48 -304 48 -336
WIRE 48 -304 -32 -304
WIRE -416 -288 -592 -288
WIRE -416 -272 -416 -288
WIRE -224 -272 -416 -272
WIRE 208 -272 208 -336
WIRE 208 -272 -32 -272
WIRE 224 -272 208 -272
WIRE -800 -240 -896 -240
WIRE -224 -240 -416 -240
WIRE 80 -240 -32 -240
WIRE 224 -224 224 -272
WIRE -224 -208 -256 -208
WIRE 16 -208 -32 -208
WIRE -416 -192 -416 -240
WIRE -416 -192 -592 -192
WIRE -1392 -176 -1392 -256
WIRE -1296 -176 -1296 -256
WIRE -896 -176 -896 -240
WIRE 80 -128 80 -240
WIRE 144 -128 80 -128
WIRE -1392 -64 -1392 -96
WIRE -1296 -64 -1296 -96
WIRE -896 -32 -896 -96
WIRE -256 -32 -256 -208
WIRE 16 -32 16 -208
WIRE 224 -32 224 -96
FLAG 48 -368 Vin
FLAG 16 -32 0
FLAG 224 -32 0
FLAG -256 -32 0
FLAG -336 -368 DRIVE
FLAG -896 -32 0
FLAG -1296 -64 0
FLAG -1392 -64 0
FLAG -1392 -256 DRIVE
SYMBOL EPC\\EPC23101\\EPC23101_model -128 -288 R0
SYMATTR InstName U2
SYMBOL EPC\\EPCGaN 144 -128 R0
SYMATTR InstName U4
SYMATTR Value EPC2001
SYMBOL cap 176 -352 R90
WINDOW 0 0 32 VBottom 2
WINDOW 3 32 32 VTop 2
SYMATTR InstName C1
SYMATTR Value 100n
SYMBOL PWMGen\\PWMGen -688 -240 R0
SYMATTR InstName X1
SYMBOL voltage -896 -192 R0
WINDOW 123 0 0 Left 0
WINDOW 39 0 0 Left 0
SYMATTR InstName V1
SYMATTR Value 0.25
SYMBOL voltage -1392 -192 R0
WINDOW 123 0 0 Left 0
WINDOW 39 0 0 Left 0
SYMATTR InstName V2
SYMATTR Value 5
SYMBOL voltage -1296 -192 R0
WINDOW 123 0 0 Left 0
WINDOW 39 0 0 Left 0
SYMATTR InstName V3
SYMATTR Value 27.8
TEXT -208 -752 Left 2 !.inc EPC\\EPC23101\\EPC23101_model.net
TEXT -200 -664 Left 2 !.inc EPC\\EPCGaNLibrary.lib
TEXT -200 -592 Left 2 !.tran 100m
