Version 4.1
SHEET 1 1408 776
SYMBOL EPC\\EPC23101\\EPC23101_model 480 640 R0
SYMATTR InstName U3
SYMBOL EPC\\EPCGaN 720 608 R0
SYMATTR InstName U1
TEXT 408 176 Left 2 !.tran 100m
TEXT 360 16 Left 2 !.inc EPC\\EPC23101\\EPC23101_model.net
TEXT 352 88 Left 2 !.inc EPC\\EPCGaNLibrary.lib
