*----------------------------------------------------------------------
* SPICE Model generated by Murata Manufacturing Co., Ltd.
* Copyright(C) Murata Manufacturing Co., Ltd.
* Description :3225M(1210)/X7S/10uF/50V
* Murata P/N :GCM32EC71H106KA03
* Property : C = 10[uF]
* Data Generated on Oct 1, 2019
*----------------------------------------------------------------------
* Applicable Conditions:
*   Frequency Range = 100Hz-6GHz
*   Temperature = 25 degC
*   DC Bias Voltage = 0V
*   Small Signal Operation
*----------------------------------------------------------------------
.SUBCKT GCM32EC71H106KA03_DC0V_25degC port1 port2
C1 port1 11 9.78e-6
L2 11 12 6.01e-11
R3 12 13 1.45e-3
C4 13 14 1.01e-3
R4 13 14 5.26
C5 14 15 1.79e-3
R5 14 15 2.75e-1
C6 15 16 1.70e-3
R6 15 16 3.89e-2
C7 16 17 3.04e-3
R7 16 17 3.81e-3
C8 17 18 1.70e-3
R8 17 18 1.77e-3
L9 18 19 5.61e-12
R9 18 19 2.80e-2
L10 19 20 3.10e-11
R10 19 20 1.77e-2
L11 20 21 3.43e-10
R11 20 21 1.68e-2
C12 21 22 1.83e-5
L12 21 22 1.49e-10
R12 21 22 1.34e-2
C13 22 23 1.52e-5
L13 22 23 7.98e-11
R13 22 23 9.29e-3
C14 23 24 3.80e-11
L14 23 24 6.89e-11
R14 23 24 5.17
C15 24 port2 2.14e-12
L15 24 port2 1.96e-10
R15 24 port2 115
R100 port1 11 5.00e+7
.ENDS GCM32EC71H106KA03_DC0V_25degC