Version 4.1
SHEET 1 5892 2848
WIRE -1344 -624 -1344 -688
WIRE -1104 -624 -1344 -624
WIRE -1008 -624 -1104 -624
WIRE -864 -624 -944 -624
WIRE -1104 -528 -1104 -544
WIRE -1344 -464 -1344 -624
WIRE -1264 -464 -1344 -464
WIRE -864 -464 -864 -624
WIRE -864 -464 -944 -464
WIRE -832 -464 -864 -464
WIRE -1344 -416 -1344 -464
WIRE -560 -384 -560 -688
WIRE -400 -384 -560 -384
WIRE -1264 -368 -1584 -368
WIRE -800 -368 -944 -368
WIRE -560 -368 -560 -384
WIRE -800 -288 -800 -368
WIRE -768 -288 -800 -288
WIRE -608 -288 -688 -288
WIRE -1344 -272 -1344 -336
WIRE -1264 -272 -1344 -272
WIRE -832 -272 -832 -400
WIRE -832 -272 -944 -272
WIRE -560 -272 -832 -272
WIRE -288 -272 -560 -272
WIRE -208 -272 -288 -272
WIRE -1584 -240 -1584 -368
WIRE 240 -240 144 -240
WIRE 256 -240 240 -240
WIRE 368 -240 336 -240
WIRE 672 -240 368 -240
WIRE 848 -240 752 -240
WIRE 976 -240 848 -240
WIRE 848 -208 848 -240
WIRE 976 -208 976 -240
WIRE -784 -192 -800 -192
WIRE -608 -192 -704 -192
WIRE 240 -192 240 -240
WIRE 272 -192 240 -192
WIRE 368 -192 368 -240
WIRE 368 -192 336 -192
WIRE -1264 -176 -1376 -176
WIRE -800 -176 -800 -192
WIRE -800 -176 -944 -176
WIRE 272 -176 272 -192
WIRE 336 -176 336 -192
WIRE -560 -160 -560 -176
WIRE -560 -160 -784 -160
WIRE -400 -144 -400 -384
WIRE -288 -144 -288 -272
WIRE -1584 -128 -1584 -160
WIRE -1264 -80 -1328 -80
WIRE -784 -80 -784 -160
WIRE -784 -80 -944 -80
WIRE -1328 -64 -1328 -80
WIRE 160 -64 128 -64
WIRE 448 -64 432 -64
WIRE 848 -64 848 -144
WIRE 848 -64 800 -64
WIRE 976 -64 976 -128
WIRE 976 -64 848 -64
WIRE 128 -32 128 -64
WIRE 448 -32 448 -64
WIRE 272 0 272 -96
WIRE 336 0 336 -96
WIRE -1104 16 -1104 -16
WIRE -1104 16 -1328 16
WIRE -1104 32 -1104 16
WIRE -704 32 -736 32
WIRE -560 32 -560 -160
WIRE -560 32 -624 32
WIRE -400 32 -400 -80
WIRE -400 32 -560 32
WIRE -288 32 -288 -80
WIRE -288 32 -400 32
WIRE -224 32 -288 32
WIRE 224 32 176 32
WIRE 544 32 384 32
WIRE -736 64 -736 32
WIRE 224 64 176 64
WIRE 448 64 384 64
WIRE 464 64 448 64
WIRE 544 64 544 32
WIRE 464 80 464 64
WIRE 304 176 304 144
WIRE 304 272 304 256
WIRE 368 272 304 272
WIRE 560 272 432 272
WIRE 560 304 560 272
WIRE -784 496 -912 496
WIRE -784 528 -784 496
WIRE -1312 560 -1312 544
WIRE -1216 560 -1312 560
WIRE -912 560 -912 496
WIRE -1056 608 -1056 544
WIRE -992 608 -1056 608
WIRE -656 608 -832 608
WIRE -576 608 -656 608
WIRE -1312 624 -1312 560
WIRE -1344 640 -1456 640
WIRE -1216 656 -1216 640
WIRE -1216 656 -1280 656
WIRE -1120 656 -1216 656
WIRE -992 656 -1008 656
WIRE -1344 672 -1408 672
WIRE -576 704 -576 608
WIRE -512 704 -576 704
WIRE -368 704 -448 704
WIRE -512 736 -576 736
WIRE -1312 768 -1312 688
WIRE -576 784 -576 736
WIRE -576 784 -656 784
WIRE -656 816 -656 784
WIRE -1552 864 -1696 864
WIRE -1408 864 -1408 672
WIRE -1408 864 -1472 864
WIRE -1344 864 -1408 864
WIRE -1120 864 -1120 656
WIRE -1120 864 -1264 864
WIRE -1056 864 -1120 864
WIRE -912 864 -912 704
WIRE -912 864 -992 864
WIRE -1696 944 -1696 864
WIRE -656 960 -656 896
WIRE -1696 1104 -1696 1024
WIRE 576 1136 576 1104
WIRE 576 1136 368 1136
WIRE 752 1136 576 1136
WIRE 848 1136 752 1136
WIRE 48 1152 48 1120
WIRE 192 1152 192 1104
WIRE -1024 1168 -1104 1168
WIRE -816 1168 -816 1104
WIRE -816 1168 -1024 1168
WIRE -768 1168 -816 1168
WIRE -480 1168 -480 1104
WIRE -480 1168 -528 1168
WIRE -224 1168 -480 1168
WIRE 576 1184 576 1136
WIRE 752 1184 752 1136
WIRE 848 1184 848 1136
WIRE 368 1200 368 1136
WIRE -1104 1216 -1104 1168
WIRE -1024 1232 -1024 1168
WIRE -864 1232 -960 1232
WIRE -864 1264 -864 1232
WIRE -768 1264 -864 1264
WIRE -288 1264 -528 1264
WIRE -224 1264 -224 1168
WIRE 576 1280 576 1248
WIRE 752 1280 752 1248
WIRE 752 1280 576 1280
WIRE 848 1280 848 1248
WIRE 848 1280 752 1280
WIRE -448 1296 -528 1296
WIRE 368 1296 368 1280
WIRE 576 1296 576 1280
WIRE -1360 1312 -1360 1264
WIRE 48 1312 48 1232
WIRE 192 1312 192 1232
WIRE -464 1328 -528 1328
WIRE -1104 1360 -1104 1296
WIRE -1104 1360 -1120 1360
WIRE -768 1360 -1104 1360
WIRE -416 1360 -528 1360
WIRE -768 1392 -800 1392
WIRE -416 1392 -416 1360
WIRE -416 1392 -528 1392
WIRE -1360 1424 -1360 1392
WIRE -1024 1424 -1024 1296
WIRE -960 1424 -960 1296
WIRE -960 1424 -1024 1424
WIRE -832 1424 -960 1424
WIRE -768 1424 -832 1424
WIRE -480 1424 -528 1424
WIRE -288 1424 -288 1328
WIRE -288 1424 -480 1424
WIRE -224 1424 -224 1328
WIRE -224 1424 -288 1424
WIRE -832 1472 -832 1424
WIRE -480 1472 -480 1424
FLAG -1104 32 0
FLAG -736 64 0
FLAG -208 -272 Mot
FLAG -224 32 RetMot
FLAG -560 -688 Cbulk
FLAG 576 1296 0
FLAG 576 1104 Cbulk
FLAG 368 1296 0
FLAG 144 -240 Mot
FLAG 800 -64 RetMot
FLAG -1344 -688 +12V
FLAG 48 1312 0
FLAG 192 1312 0
FLAG 48 1120 +12V
FLAG 192 1104 +3V3
FLAG -656 960 0
FLAG 176 64 Vref1
FLAG 448 64 Vref2
FLAG 544 64 0
FLAG 176 32 +3V3
FLAG 304 272 Iout
FLAG -1312 544 +3V3
FLAG -1312 768 0
FLAG -1696 1104 0
FLAG -1360 1424 0
FLAG -1360 1264 Clock
FLAG -656 608 D-Q
FLAG -656 784 PWMIN
FLAG -1376 -176 PWM
FLAG -816 1104 +3V3
FLAG -480 1104 +3V3
FLAG -832 1472 0
FLAG -480 1472 0
FLAG -464 1328 Iout
FLAG 560 304 0
FLAG -784 528 0
FLAG -1056 544 +3V3
FLAG -1008 656 Clock
FLAG -912 864 CLR
FLAG -1120 656 COMP
FLAG -368 704 PWM
FLAG -1584 -128 0
FLAG -1456 640 Iiso2
FLAG -1120 1360 Iiso
FLAG -800 1392 Iiso2
FLAG 464 80 0
FLAG 976 -240 out
FLAG 368 1136 Vin
FLAG -1696 864 V_Iref
FLAG -448 1296 Vref1
FLAG 448 -32 0
FLAG 128 -32 0
SYMBOL schottky -1008 -608 R270
WINDOW 0 32 32 VTop 2
WINDOW 3 0 32 VBottom 2
SYMATTR InstName D1
SYMATTR Value MBRS360
SYMBOL cap -848 -464 R0
SYMATTR InstName C1
SYMATTR Value 0.1µ
SYMATTR SpiceLine V=100 Irms=1.2 Rser=0.0758696 Lser=0 mfg="KEMET" pn="C1206C104K1RAC" type="X7R"
SYMBOL voltage 368 1184 R0
WINDOW 123 0 0 Left 0
WINDOW 39 0 0 Left 0
SYMATTR InstName V1
SYMATTR Value 27
SYMBOL res 240 -224 R270
WINDOW 0 32 56 VTop 2
WINDOW 3 0 56 VBottom 2
SYMATTR InstName R1
SYMATTR Value 1m
SYMATTR SpiceLine tol=1 pwr=3
SYMBOL ind 656 -224 R270
WINDOW 0 32 56 VTop 2
WINDOW 3 5 56 VBottom 2
SYMATTR InstName L5
SYMATTR Value 70µ
SYMATTR SpiceLine Rser=0.103
SYMBOL cap 832 -208 R0
SYMATTR InstName C3
SYMATTR Value 20µ
SYMBOL res -1344 -80 R0
SYMATTR InstName R3
SYMATTR Value 40.2K
SYMATTR SpiceLine tol=1 pwr=0.1
SYMBOL cap 560 1184 R0
SYMATTR Value 470µ
SYMATTR InstName C2
SYMATTR SpiceLine V=50 Irms=1.776 Rser=0.0575 Lser=6.978n mfg="Würth Elektronik" pn="860160678030 WCAP-ATLL 13x20" type="Al electrolytic"
SYMBOL res -1120 -640 R0
SYMATTR InstName R4
SYMATTR Value 10
SYMBOL res -1360 -432 R0
SYMATTR InstName R5
SYMATTR Value 51k
SYMBOL voltage 48 1136 R0
WINDOW 123 0 0 Left 0
WINDOW 39 0 0 Left 0
SYMATTR InstName V2
SYMATTR Value 12
SYMBOL voltage 192 1136 R0
WINDOW 123 0 0 Left 0
WINDOW 39 0 0 Left 0
SYMATTR InstName V3
SYMATTR Value 3.3
SYMBOL voltage -656 800 R0
WINDOW 123 0 0 Left 0
WINDOW 39 0 0 Left 0
SYMATTR InstName V4
SYMATTR Value PULSE(0 3.3 0 1n 1n {1/(FREQ*1.05)} {1/FREQ})
SYMBOL voltage -1584 -256 R0
WINDOW 123 0 0 Left 0
WINDOW 39 0 0 Left 0
WINDOW 3 -210 -11 Left 2
SYMATTR Value PULSE(0 3.3 1m 1n 1n 4m)
SYMATTR InstName V5
SYMBOL res -672 -304 R90
WINDOW 0 0 56 VBottom 2
WINDOW 3 32 56 VTop 2
SYMATTR InstName R6
SYMATTR Value 0
SYMBOL res -688 -208 R90
WINDOW 0 0 56 VBottom 2
WINDOW 3 32 56 VTop 2
SYMATTR InstName R7
SYMATTR Value 0
SYMBOL MOSFETs\\OptiMOS6\\Halfbridge_NMOS -608 -272 R0
SYMATTR InstName U2
SYMATTR SpiceModel ISG0613N04NM6H_L1
SYMBOL PowerProducts\\LTC7063 -1104 -272 R0
SYMATTR InstName U3
SYMBOL OpAmps\\AD8411A 304 32 M90
WINDOW 0 62 -48 VLeft 2
WINDOW 3 64 140 VLeft 2
SYMATTR InstName U1
SYMBOL Digital\\and -480 656 R0
SYMATTR InstName A1
SYMATTR SpiceLine Vhigh=3.3 Vlow=0
SYMBOL res 960 -224 R0
SYMATTR InstName R2
SYMATTR Value 10
SYMBOL res -1248 848 R90
WINDOW 0 0 56 VBottom 2
WINDOW 3 32 56 VTop 2
SYMATTR InstName R10
SYMATTR Value 100k
SYMBOL res -1456 848 R90
WINDOW 0 0 56 VBottom 2
WINDOW 3 32 56 VTop 2
SYMATTR InstName R8
SYMATTR Value 330
SYMBOL voltage -1696 928 R0
WINDOW 123 0 0 Left 0
WINDOW 39 0 0 Left 0
SYMATTR InstName V7
SYMATTR Value PULSE(0.5476 1.5 1.5m 1m 1m 1m 5m)
SYMBOL voltage -1360 1296 R0
WINDOW 123 0 0 Left 0
WINDOW 39 0 0 Left 0
WINDOW 3 -436 56 Left 2
SYMATTR Value PULSE(0 3.3 0 1n 1n 1u {1/FREQ*1.05})
SYMATTR InstName V9
SYMBOL ADuM3190\\ADuM3190 -768 1440 R0
SYMATTR InstName U4
SYMBOL cap -304 1264 R0
SYMATTR InstName C6
SYMATTR Value 1µ
SYMBOL cap -240 1264 R0
SYMATTR InstName C7
SYMATTR Value 1µ
SYMBOL cap -1040 1232 R0
SYMATTR InstName C8
SYMATTR Value 1µ
SYMBOL cap -976 1232 R0
SYMATTR InstName C9
SYMATTR Value 1µ
SYMBOL res -1120 1200 R0
SYMATTR InstName R9
SYMATTR Value 10k
SYMBOL res 288 160 R0
SYMATTR InstName R11
SYMATTR Value 10k
SYMBOL cap 432 256 R90
WINDOW 0 0 32 VBottom 2
WINDOW 3 32 32 VTop 2
SYMATTR InstName C10
SYMATTR Value 22p
SYMBOL Digital\\dflop -912 560 R0
SYMATTR InstName A2
SYMATTR SpiceLine Vhigh=3.3 Vlow=0
SYMBOL Digital\\inv -1056 800 R0
SYMATTR InstName A3
SYMATTR SpiceLine Vhigh=3.3 Vlow=0
SYMBOL ind -720 48 R270
WINDOW 0 32 56 VTop 2
WINDOW 3 5 56 VBottom 2
SYMATTR InstName L2
SYMATTR Value 5n
SYMBOL Comparators\\MAX9095 -1312 656 R0
SYMATTR InstName U6
SYMBOL res -1232 544 R0
SYMATTR InstName R12
SYMATTR Value 10k
SYMBOL TVSdiode -272 -80 R180
WINDOW 0 24 65 Left 2
WINDOW 3 24 -2 Left 2
SYMATTR InstName D2
SYMATTR Value UFZV36B
SYMBOL TVSdiode -384 -80 R180
WINDOW 0 24 65 Left 2
WINDOW 3 24 -2 Left 2
SYMATTR InstName D3
SYMATTR Value UFZV36B
SYMBOL cap 624 -96 R90
WINDOW 0 0 32 VBottom 2
WINDOW 3 32 32 VTop 2
SYMATTR InstName C11
SYMATTR Value 30n
SYMBOL cap 432 -80 R90
WINDOW 0 0 32 VBottom 2
WINDOW 3 32 32 VTop 2
SYMATTR InstName C12
SYMATTR Value 1n
SYMBOL cap 224 -80 R90
WINDOW 0 0 32 VBottom 2
WINDOW 3 32 32 VTop 2
SYMATTR InstName C13
SYMATTR Value 1n
SYMBOL res 256 -192 R0
WINDOW 0 -38 32 Left 2
WINDOW 3 -32 72 Left 2
SYMATTR InstName R13
SYMATTR Value 10
SYMBOL res 320 -192 R0
SYMATTR InstName R14
SYMATTR Value 10
SYMBOL Contrib\\Wurth\\Capacitors\\MLCC\\WCAP-CSGP\\WCAP-CSGP_25V_DCbias 832 1184 R0
WINDOW 38 -182 -82 Left 2
WINDOW 40 33 75 Left 2
SYMATTR SpiceModel 1210X7R_10uF_885012209028
SYMATTR SpiceLine2 n=64
SYMATTR InstName C16
TEXT 32 496 Left 2 !.tran 0 6m 1m startup
TEXT -1520 112 Left 2 !.INCLUDE MOSFETS\\OptiMOS6\\OptiMOS6_40V_Halfbridges_LTSpice.lib
TEXT -712 128 Left 2 !.options reltol=1e-3 abstol=5u
TEXT -888 1544 Left 2 !.INCLUDE ADuM3190\\ADuM3190B.sub
TEXT 32 568 Left 2 !.param FREQ=30k
TEXT -1720 368 Left 7 ;Gate DRIVE
TEXT 8 376 Left 7 ;OUTPUT & CSA
TEXT 8 864 Left 7 ;Gate DRIVE
TEXT 8 1632 Left 7 ;INPUT
TEXT -1784 1648 Left 7 ;Current Limiting
TEXT -1664 1072 Left 2 ;I_cut: V7 = 0.0492(I_Shunt) + 1.225/2
TEXT 304 496 Left 2 !.meas TRAN E_out INTEG V(out)*I(R2) FROM 1.5ms TO 2.5ms
TEXT 304 528 Left 2 !.meas TRAN E_in INTEG V(Vin)*I(V1) FROM 1.5ms TO 2.5ms
RECTANGLE Normal -32 1712 -1824 448 1
RECTANGLE Normal 1056 432 -16 -384 1
RECTANGLE Normal 1056 1712 -16 944 1
RECTANGLE Normal 1056 448 -16 928 1
RECTANGLE Normal -32 -832 -1824 432 1
