Version 4.1
SHEET 1 880 680
WIRE -320 -336 -320 -400
WIRE -192 -336 -192 -400
WIRE -320 -224 -320 -256
WIRE -192 -224 -192 -256
WIRE 96 -48 32 -48
WIRE 320 -48 160 -48
WIRE 544 0 544 -48
WIRE 496 80 352 80
WIRE 32 96 32 -48
WIRE 80 96 32 96
WIRE 224 96 208 96
WIRE 304 96 224 96
WIRE 320 96 320 -48
WIRE 320 96 304 96
WIRE 352 128 352 80
WIRE 352 128 224 128
WIRE 80 160 -112 160
WIRE 304 160 224 160
WIRE 544 160 544 96
WIRE 544 160 304 160
WIRE 656 160 544 160
WIRE -704 176 -768 176
WIRE 352 192 224 192
WIRE 544 208 544 160
WIRE -976 224 -1200 224
WIRE 80 240 32 240
WIRE 256 240 224 240
WIRE -112 272 -112 160
WIRE 32 272 32 240
WIRE -1200 288 -1200 224
WIRE 352 288 352 192
WIRE 496 288 352 288
WIRE -112 384 -112 352
WIRE 32 384 32 352
WIRE 256 384 256 240
WIRE 544 384 544 304
WIRE -1200 432 -1200 368
FLAG 544 384 0
FLAG 32 384 0
FLAG -112 384 0
FLAG -112 160 In
FLAG 32 -48 +12V
FLAG 256 384 0
FLAG 544 -48 Supply
FLAG 656 160 Out
FLAG -192 -224 0
FLAG -320 -224 0
FLAG -320 -400 +12V
FLAG -192 -400 Supply
FLAG -1200 432 0
FLAG -704 176 In
SYMBOL LM5104_PSPICE_TRANS\\lm5104 144 144 R0
SYMATTR InstName U1
SYMBOL Contrib\\Nexperia\\nmos\\PSMN1R2-30YLD 496 0 R0
SYMATTR InstName U2
SYMBOL Contrib\\Nexperia\\nmos\\PSMN1R2-30YLD 496 208 R0
SYMATTR InstName U3
SYMBOL schottky 96 -32 R270
WINDOW 0 32 32 VTop 2
WINDOW 3 0 32 VBottom 2
SYMATTR InstName D1
SYMATTR Value RB021VAM90
SYMBOL res 16 256 R0
SYMATTR InstName R1
SYMATTR Value 5.6k
SYMBOL res -128 256 R0
SYMATTR InstName R2
SYMATTR Value 10k
SYMBOL cap 288 96 R0
SYMATTR InstName C1
SYMATTR Value 0.1”
SYMATTR SpiceLine V=6.3 Irms=1.2 Rser=0.0758696 Lser=0 mfg="KEMET" pn="C1206C104K9RAC" type="X7R"
SYMBOL voltage -320 -352 R0
WINDOW 123 0 0 Left 0
WINDOW 39 0 0 Left 0
SYMATTR InstName V1
SYMATTR Value 12
SYMBOL voltage -192 -352 R0
WINDOW 123 0 0 Left 0
WINDOW 39 0 0 Left 0
SYMATTR InstName V2
SYMATTR Value 27.8
SYMBOL PWMGen\\PWMGen -864 224 R0
SYMATTR InstName X1
SYMBOL voltage -1200 272 R0
WINDOW 123 0 0 Left 0
WINDOW 39 0 0 Left 0
SYMATTR InstName V3
SYMATTR Value 0.25
TEXT -1232 456 Left 2 !.tran 500m
