Version 4.1
SHEET 1 1576 680
WIRE 704 -64 336 -64
WIRE 336 0 336 -64
WIRE -208 128 -544 128
WIRE -32 128 -128 128
WIRE 80 128 -32 128
WIRE 336 128 336 80
WIRE 336 128 272 128
WIRE 384 128 336 128
WIRE 512 128 384 128
WIRE 704 128 704 -64
WIRE -544 192 -544 128
WIRE 400 192 272 192
WIRE 512 192 512 128
WIRE 80 224 -32 224
WIRE 320 224 272 224
WIRE 400 304 400 192
WIRE 400 304 320 304
WIRE 512 304 512 272
WIRE 512 304 400 304
WIRE -544 320 -544 272
WIRE -32 320 -32 224
WIRE 400 320 400 304
WIRE 704 320 704 208
WIRE 64 480 0 480
WIRE 336 480 256 480
WIRE 384 480 336 480
WIRE 512 480 384 480
WIRE 688 480 592 480
WIRE 928 496 832 496
WIRE 1168 496 1040 496
WIRE 1216 496 1168 496
WIRE 1344 496 1216 496
WIRE 1520 496 1424 496
WIRE 928 560 896 560
WIRE 1088 560 1040 560
WIRE 64 576 0 576
WIRE 336 576 336 560
WIRE 336 576 256 576
WIRE 896 592 896 560
WIRE 896 592 832 592
WIRE 1088 592 1088 560
WIRE 1168 592 1168 576
WIRE 1168 592 1088 592
WIRE 0 624 0 576
WIRE 336 624 336 576
WIRE 832 640 832 592
WIRE 1168 640 1168 592
FLAG -544 320 0
FLAG -32 320 0
FLAG 400 320 0
FLAG 704 320 0
FLAG 384 128 Vout
FLAG -32 128 Vin
FLAG 320 224 Vbase
FLAG 0 480 Vin
FLAG 0 624 0
FLAG 336 624 0
FLAG 704 -64 Vcc
FLAG 688 480 Vcc
FLAG 384 480 Vout2
FLAG 832 496 Vin
FLAG 832 640 0
FLAG 1168 640 0
FLAG 1520 496 Vcc
FLAG 1216 496 Vout3
SYMBOL Optos\\4N25 176 192 R0
SYMATTR InstName U1
SYMBOL voltage -544 176 R0
WINDOW 123 0 0 Left 0
WINDOW 39 0 0 Left 0
SYMATTR InstName V1
SYMATTR Value PULSE(0 11 0 1m 1m 100m 1s)
SYMBOL res -112 112 R90
WINDOW 0 0 56 VBottom 2
WINDOW 3 32 56 VTop 2
SYMATTR InstName R1
SYMATTR Value 510
SYMBOL res 320 -16 R0
SYMATTR InstName R2
SYMATTR Value 10k
SYMBOL voltage 704 112 R0
WINDOW 123 0 0 Left 0
WINDOW 39 0 0 Left 0
SYMATTR InstName V2
SYMATTR Value 3.3
SYMBOL res 304 208 R0
SYMATTR InstName R3
SYMATTR Value 270k
SYMBOL res 496 176 R0
SYMATTR InstName R4
SYMATTR Value 1Meg
SYMBOL Optos\\PC817A 160 528 R0
SYMATTR InstName U2
SYMBOL res 608 464 R90
WINDOW 0 0 56 VBottom 2
WINDOW 3 32 56 VTop 2
SYMATTR InstName R5
SYMATTR Value 10k
SYMBOL Contrib\\Wurth\\Optoelectronics\\Optocoupler\\WL-OCPT\\WL-OCPT_Series_816 976 528 R0
SYMATTR InstName Q1
SYMBOL res 1440 480 R90
WINDOW 0 0 56 VBottom 2
WINDOW 3 32 56 VTop 2
SYMATTR InstName R6
SYMATTR Value 10k
SYMBOL res 320 464 R0
SYMATTR InstName R7
SYMATTR Value 1Meg
SYMBOL res 1152 480 R0
SYMATTR InstName R8
SYMATTR Value 1Meg
TEXT -576 344 Left 2 !.tran 5
