Version 4.1
SHEET 1 880 680
WIRE 560 112 304 112
WIRE 96 160 -96 160
WIRE 560 160 560 112
WIRE -96 192 -96 160
WIRE 480 208 304 208
WIRE 480 224 480 208
WIRE -96 320 -96 272
WIRE 480 352 480 304
WIRE 528 352 480 352
WIRE 560 352 560 240
WIRE 560 352 528 352
WIRE 528 368 528 352
FLAG -96 320 0
FLAG 528 368 0
FLAG 560 112 PWMH
FLAG 480 208 PWML
SYMBOL voltage -96 176 R0
WINDOW 123 0 0 Left 0
WINDOW 39 0 0 Left 0
SYMATTR InstName V1
SYMATTR Value 0.5
SYMBOL res 544 144 R0
SYMATTR InstName R1
SYMATTR Value 10k
SYMBOL res 464 208 R0
SYMATTR InstName R2
SYMATTR Value 10k
SYMBOL PWMGen\\PWMGen 208 160 R0
SYMATTR InstName X2
TEXT -128 392 Left 2 !.tran 0 1ms 0
