Version 4.1
SHEET 1 2196 680
WIRE 1408 -128 1392 -128
WIRE 1424 -128 1408 -128
WIRE 1424 -48 1424 -128
WIRE 1424 -48 1376 -48
WIRE 1328 -16 1328 -128
WIRE 1376 -16 1376 -48
WIRE 288 32 -96 32
WIRE 448 32 288 32
WIRE 480 32 448 32
WIRE 576 32 560 32
WIRE 592 32 576 32
WIRE 896 32 688 32
WIRE 992 32 896 32
WIRE 1088 32 992 32
WIRE 1184 32 1088 32
WIRE 1312 32 1184 32
WIRE 1472 32 1392 32
WIRE -96 48 -96 32
WIRE 1088 48 1088 32
WIRE 1184 48 1184 32
WIRE 1472 48 1472 32
WIRE 288 64 288 32
WIRE 896 80 896 32
WIRE 672 96 672 80
WIRE -96 144 -96 128
WIRE 448 144 448 32
WIRE 576 144 576 32
WIRE 992 144 992 32
WIRE 1088 144 1088 112
WIRE 1184 144 1184 128
WIRE 1472 144 1472 128
WIRE 288 208 288 144
WIRE 288 208 208 208
WIRE 384 208 288 208
WIRE 672 208 672 176
WIRE 672 208 640 208
WIRE 688 208 672 208
WIRE 784 208 768 208
WIRE 208 224 208 208
WIRE 288 224 288 208
WIRE 992 288 992 224
WIRE 992 288 640 288
WIRE 992 304 992 288
WIRE 208 320 208 288
WIRE 288 320 288 304
WIRE 304 368 288 368
WIRE 384 368 368 368
WIRE 896 368 896 160
WIRE 896 368 640 368
WIRE 992 400 992 384
WIRE 512 432 512 416
FLAG 848 208 0
FLAG 288 320 0
FLAG 288 368 0
FLAG 512 432 0
FLAG 992 400 0
FLAG 1088 144 0
FLAG -96 144 0
FLAG 1184 144 0
FLAG 208 320 0
FLAG 1472 144 0
SYMBOL res 272 48 R0
SYMATTR InstName R1
SYMATTR Value 51k
SYMBOL res 272 208 R0
SYMATTR InstName R2
SYMATTR Value 10k
SYMBOL cap 368 352 R90
WINDOW 0 0 32 VBottom 2
WINDOW 3 32 32 VTop 2
SYMATTR InstName C1
SYMATTR Value 47n
SYMBOL cap 848 192 R90
WINDOW 0 0 32 VBottom 2
WINDOW 3 32 32 VTop 2
SYMATTR InstName C2
SYMATTR Value 10n
SYMBOL res 656 80 R0
SYMATTR InstName R3
SYMATTR Value 10
SYMBOL res 784 192 R90
WINDOW 0 0 56 VBottom 2
WINDOW 3 32 56 VTop 2
SYMATTR InstName R4
SYMATTR Value 100
SYMBOL res 464 48 R270
WINDOW 0 32 56 VTop 2
WINDOW 3 0 56 VBottom 2
SYMATTR InstName R5
SYMATTR Value 1.5m
SYMBOL nmos 592 80 R270
WINDOW 0 54 47 VTop 2
WINDOW 3 27 95 VRight 2
SYMATTR InstName Q1
SYMATTR Value IPB016N06L3
SYMBOL res 976 128 R0
SYMATTR InstName R6
SYMATTR Value 36.5K
SYMBOL res 976 288 R0
SYMATTR InstName R7
SYMATTR Value 4.02K
SYMBOL res 880 64 R0
SYMATTR InstName R8
SYMATTR Value 27K
SYMBOL cap 1072 48 R0
SYMATTR InstName C3
SYMATTR Value 4700µ
SYMATTR SpiceLine V=50 Irms=3.355 Rser=0.015 Lser=9.7n mfg="Würth Elektronik" pn="860010683032 WCAP-ATG8 22x41" type="Al electrolytic"
SYMBOL voltage -96 32 R0
WINDOW 123 0 0 Left 2
WINDOW 39 0 0 Left 2
SYMATTR InstName V1
SYMATTR Value PWL(0 0 2.7m 0 2.701m 29)
SYMBOL cap 192 224 R0
SYMATTR InstName C4
SYMATTR Value .1µ
SYMBOL PowerProducts\\LT4256-1 512 272 R0
SYMATTR InstName U1
SYMBOL res 1168 32 R0
SYMATTR InstName Rload
SYMATTR Value 100k
SYMBOL res 1456 32 R0
SYMATTR InstName R9
SYMATTR Value 1
SYMBOL sw 1408 32 R90
SYMATTR InstName S1
SYMBOL voltage 1312 -128 R270
WINDOW 0 32 56 VTop 2
WINDOW 3 -32 56 VBottom 2
SYMATTR InstName V2
SYMATTR Value PWL(0 0 270m 0 270.1m 5)
TEXT 752 416 Left 2 !.tran 500m startup
TEXT 1672 -160 Left 2 !.model SW SW(Ron=1m Roff=100Meg Vt=3)
