Version 4.1
SHEET 1 1572 1096
WIRE 896 -240 880 -240
WIRE 912 -240 896 -240
WIRE 912 -160 912 -240
WIRE 912 -160 864 -160
WIRE 816 -128 816 -240
WIRE 864 -128 864 -160
WIRE -256 -80 -1040 -80
WIRE -16 -80 -256 -80
WIRE 80 -80 -16 -80
WIRE 288 -80 176 -80
WIRE 320 -80 288 -80
WIRE 416 -80 400 -80
WIRE 480 -80 416 -80
WIRE 560 -80 480 -80
WIRE 688 -80 560 -80
WIRE 800 -80 688 -80
WIRE 960 -80 880 -80
WIRE -1040 -64 -1040 -80
WIRE 560 -64 560 -80
WIRE 688 -64 688 -80
WIRE 960 -64 960 -80
WIRE 160 -16 160 -32
WIRE -1040 32 -1040 16
WIRE 560 32 560 0
WIRE 688 32 688 16
WIRE 960 32 960 16
WIRE 160 80 160 64
WIRE 208 80 160 80
WIRE 480 112 480 -80
WIRE 608 112 480 112
WIRE -16 128 -16 -80
WIRE -256 192 -256 -80
WIRE -16 256 -16 208
WIRE 160 256 160 80
WIRE 288 256 288 -80
WIRE 416 256 416 -80
WIRE -256 352 -256 272
WIRE -256 352 -368 352
WIRE -80 352 -256 352
WIRE 512 352 480 352
WIRE 608 352 608 112
WIRE 608 352 592 352
WIRE -368 384 -368 352
WIRE -256 384 -256 352
WIRE -80 448 -128 448
WIRE 496 448 480 448
WIRE -368 464 -368 448
WIRE -256 464 -256 448
WIRE 128 528 128 512
WIRE 320 528 320 512
WIRE 320 608 320 592
WIRE -128 640 -128 448
WIRE 608 640 -128 640
WIRE -128 752 -128 720
FLAG -1040 32 0
FLAG 560 32 0
FLAG 688 32 0
FLAG 320 608 0
FLAG 128 528 0
FLAG -256 464 0
FLAG -368 464 0
FLAG 688 -80 OUT
FLAG -1040 -80 IN
FLAG 208 224 0
FLAG 496 448 0
FLAG 960 32 0
FLAG -128 752 0
SYMBOL res 144 -32 R0
SYMATTR InstName R1
SYMATTR Value 10
SYMBOL res 304 -64 R270
WINDOW 0 32 56 VTop 2
WINDOW 3 0 56 VBottom 2
SYMATTR InstName R2
SYMATTR Value 1m
SYMBOL nmos 80 -32 R270
WINDOW 0 57 42 VTop 2
WINDOW 3 -14 72 VLeft 2
SYMATTR InstName Q1
SYMATTR Value IPB011N04N
SYMBOL cap 304 528 R0
SYMATTR InstName C2
SYMATTR Value 0.2”
SYMBOL cap 544 -64 R0
SYMATTR InstName Cload
SYMATTR Value 4.7m
SYMBOL voltage -1040 -80 R0
WINDOW 123 24 138 Left 2
WINDOW 39 24 117 Left 2
SYMATTR Value PWL(0 0 2.7m 0 2.701m 29)
SYMATTR InstName V1
SYMBOL zener -272 448 M180
WINDOW 0 24 64 Left 2
WINDOW 3 24 0 Left 2
SYMATTR InstName D1
SYMATTR Value 1N5371B
SYMBOL cap -384 384 R0
SYMATTR InstName C4
SYMATTR Value .1”
SYMBOL res 672 -80 R0
SYMATTR InstName Rload
SYMATTR Value 100k
SYMBOL res 608 336 R90
WINDOW 0 0 56 VBottom 2
WINDOW 3 32 56 VTop 2
SYMATTR InstName R7
SYMATTR Value 51k
SYMBOL cap 192 80 R0
WINDOW 3 39 35 Left 2
SYMATTR Value 47n
SYMATTR InstName C1
SYMBOL res 192 128 R0
WINDOW 3 39 67 Left 2
SYMATTR Value 100
SYMATTR InstName R4
SYMBOL LTC4380-4 208 384 R0
SYMATTR InstName U1
SYMBOL res -272 176 R0
SYMATTR InstName R3
SYMATTR Value 10K
SYMBOL res -32 112 R0
SYMATTR InstName R5
SYMATTR Value 200k
SYMBOL res 944 -80 R0
SYMATTR InstName R6
SYMATTR Value 1
SYMBOL sw 896 -80 R90
SYMATTR InstName S1
SYMBOL voltage 800 -240 R270
WINDOW 0 32 56 VTop 2
WINDOW 3 -32 56 VBottom 2
SYMATTR InstName V2
SYMATTR Value PWL(0 0 270m 0 270.1m 5)
SYMBOL voltage -128 624 R0
WINDOW 123 0 0 Left 0
WINDOW 39 0 0 Left 0
SYMATTR InstName V3
SYMATTR Value PULSE(4 0 0.5 10n 10n .4 1)
TEXT 728 680 Left 2 !.tran 1
TEXT 1048 -360 Left 2 !.model SW SW(Ron=1m Roff=100Meg Vt=3)
