Version 4.1
SHEET 1 2336 1256
WIRE 992 -272 832 -272
WIRE 1120 -272 992 -272
WIRE 1328 -272 1184 -272
WIRE 1392 -272 1328 -272
WIRE 1520 -272 1520 -304
WIRE 832 -256 832 -272
WIRE 1392 -224 1392 -272
WIRE 992 -176 992 -272
WIRE 1008 -176 992 -176
WIRE 1328 -176 1328 -272
WIRE 1328 -176 1296 -176
WIRE 1520 -176 1520 -192
WIRE 1728 -176 1520 -176
WIRE 832 -160 832 -176
WIRE 1728 -160 1728 -176
WIRE 1008 -96 816 -96
WIRE 1328 -96 1296 -96
WIRE 1472 -96 1328 -96
WIRE 1392 -32 1392 -160
WIRE 1520 -32 1520 -80
WIRE 1520 -32 1392 -32
WIRE 1728 -32 1728 -80
WIRE 1728 -32 1520 -32
WIRE 1760 -32 1728 -32
WIRE 1904 -32 1760 -32
WIRE 1008 -16 976 -16
WIRE 1328 -16 1328 -96
WIRE 1328 -16 1296 -16
WIRE 1520 -16 1520 -32
WIRE 1760 -16 1760 -32
WIRE 1904 -16 1904 -32
WIRE 976 64 976 -16
WIRE 976 64 944 64
WIRE 1008 64 976 64
WIRE 1392 64 1392 -32
WIRE 1392 64 1296 64
WIRE 1760 80 1760 48
WIRE 1904 80 1904 64
WIRE 816 96 816 -96
WIRE 1152 144 1152 112
WIRE 816 192 816 176
FLAG 944 64 0
FLAG 832 -160 0
FLAG 816 192 0
FLAG 1520 -304 0
FLAG 1760 80 0
FLAG 1904 80 0
FLAG 1904 -32 OUT
FLAG 1152 144 0
FLAG 832 -272 IN
SYMBOL voltage 832 -272 R0
SYMATTR InstName V1
SYMATTR Value 10
SYMBOL voltage 816 80 R0
WINDOW 123 24 138 Left 2
WINDOW 39 24 117 Left 2
SYMATTR InstName V2
SYMATTR Value PULSE(0 8 200m 10n 10n 50m 500m)
SYMBOL diode 1120 -256 R270
WINDOW 0 32 32 VTop 2
WINDOW 3 0 32 VBottom 2
SYMATTR InstName D1
SYMATTR Value RF071MM2S
SYMBOL nmos 1472 -176 R0
SYMATTR InstName M1
SYMATTR Value IPB019N06L3
SYMBOL cap 1744 -16 R0
SYMATTR Value 4700Ą
SYMATTR SpiceLine V=63 Irms=3.43 Rser=0.0248 Lser=20.343n mfg="W³rth Elektronik" pn="861020786024 WCAP-AIG5 35x30" type="Al electrolytic"
SYMATTR InstName C1
SYMBOL res 1888 -32 R0
SYMATTR InstName R1
SYMATTR Value 100k
SYMBOL voltage 1520 -176 M180
WINDOW 0 26 88 Left 2
WINDOW 3 28 26 Left 2
WINDOW 123 0 0 Left 0
WINDOW 39 0 0 Left 0
SYMATTR InstName V3
SYMATTR Value 29
SYMBOL cap 1376 -224 R0
SYMATTR InstName C2
SYMATTR Value .1Ą
SYMBOL LTC7004 1152 -48 R0
SYMATTR InstName U1
SYMBOL res 1712 -176 R0
SYMATTR InstName R2
SYMATTR Value 10
TEXT 1392 208 Left 2 !.tran 500m startup
